XX01ZVNS2B-x0819_B_301_XX01ZVNS2B-x1291+B+301+1
     RDKit          3D

 11 11  0  0  0  0  0  0  0  0999 V2000
  -10.8710    5.9480  -17.8440 O   0  0  0  0  0  0  0  0  0  0  0  0
   -9.6580    5.1970  -17.9260 S   0  0  0  0  0  0  0  0  0  0  0  0
   -9.6850    3.9110  -18.5520 O   0  0  0  0  0  0  0  0  0  0  0  0
   -9.0190    5.0060  -16.3080 C   0  0  0  0  0  0  0  0  0  0  0  0
   -8.6000    6.1010  -18.7560 N   0  0  0  0  0  0  0  0  0  0  0  0
   -7.1410    6.0760  -18.5450 C   0  0  0  0  0  0  0  0  0  0  0  0
   -6.5520    4.7970  -19.1310 C   0  0  0  0  0  0  0  0  0  0  0  0
   -5.0340    4.8150  -19.0470 C   0  0  0  0  0  0  0  0  0  0  0  0
   -4.4900    6.0080  -19.7270 N   0  0  0  0  0  0  0  0  0  0  0  0
   -4.9920    7.2480  -19.1020 C   0  0  0  0  0  0  0  0  0  0  0  0
   -6.5080    7.3110  -19.1820 C   0  0  0  0  0  0  0  0  0  0  0  0
  4  2  1  0
  3  2  2  0
  2  1  2  0
  5  2  1  0
  6  5  1  0
  6 11  1  0
 11 10  1  0
 10  9  1  0
  9  8  1  0
  8  7  1  0
  7  6  1  0
M  END

$$$$
