A71EV2A-x1080_A_201_1_A71EV2A-x0526+A+147+1
     RDKit          3D

  6  5  0  0  0  0  0  0  0  0999 V2000
    4.9590   13.9310   24.4800 O   0  0  0  0  0  0  0  0  0  0  0  0
    5.3650   14.4660   23.4540 C   0  0  0  0  0  0  0  0  0  0  0  0
    5.1240   15.7280   23.1640 N   0  0  0  0  0  0  0  0  0  0  0  0
    6.1760   16.5640   22.7970 O   0  0  0  0  0  0  0  0  0  0  0  0
    6.1890   13.7260   22.4360 C   0  0  0  0  0  0  0  0  0  0  0  0
    7.5670   13.3730   22.9450 C   0  0  0  0  0  0  0  0  0  0  0  0
  6  5  1  0
  5  2  1  0
  2  1  2  0
  3  2  1  0
  4  3  1  0
M  END

$$$$
