A71EV2A-x0237_A_151_1_A71EV2A-x0526+A+147+1
     RDKit          3D

 15 16  0  0  0  0  0  0  0  0999 V2000
    6.3080   12.6160   29.1310 O   0  0  0  0  0  0  0  0  0  0  0  0
    5.7430   11.6140   28.6940 C   0  0  0  0  0  0  0  0  0  0  0  0
    5.9030   10.2600   29.3330 C   0  0  0  0  0  0  0  0  0  0  0  0
    6.8200   10.1720   30.5520 C   0  0  0  0  0  0  0  0  0  0  0  0
    5.5870    9.8290   31.4270 C   0  0  0  0  0  0  0  0  0  0  0  0
    4.7200    9.7160   30.1460 C   0  0  0  0  0  0  0  0  0  0  0  0
    4.9700   11.6470   27.6130 N   0  0  0  0  0  0  0  0  0  0  0  0
    5.4240   12.2160   26.3580 C   0  0  0  0  0  0  0  0  0  0  0  0
    6.5470   11.4440   25.7060 C   0  0  0  0  0  0  0  0  0  0  0  0
    7.6360   12.0970   25.1670 C   0  0  0  0  0  0  0  0  0  0  0  0
    8.5520   11.4090   24.4000 C   0  0  0  0  0  0  0  0  0  0  0  0
    6.4600   10.0830   25.4740 C   0  0  0  0  0  0  0  0  0  0  0  0
    7.3240    9.3890   24.7120 N   0  0  0  0  0  0  0  0  0  0  0  0
    8.3640   10.0480   24.1680 C   0  0  0  0  0  0  0  0  0  0  0  0
    9.3050    9.2720   23.2970 C   0  0  0  0  0  0  0  0  0  0  0  0
 15 14  1  0
 14 11  1  0
 11 10  2  0
 10  9  1  0
  9  8  1  0
  8  7  1  0
  7  2  1  0
  2  1  2  0
  3  2  1  0
  3  6  1  0
  6  5  1  0
  5  4  1  0
  4  3  1  0
 12  9  2  0
 13 12  1  0
 14 13  2  0
M  END
