A71EV2A-x0207_A_151_1_A71EV2A-x0526+A+147+1
     RDKit          3D

 15 16  0  0  0  0  0  0  0  0999 V2000
    5.3470   10.5610   26.8300 O   0  0  0  0  0  0  0  0  0  0  0  0
    6.0490   11.3850   26.2470 C   0  0  0  0  0  0  0  0  0  0  0  0
    7.0710   10.9450   25.2950 C   0  0  0  0  0  0  0  0  0  0  0  0
    7.3410    9.7240   24.7770 C   0  0  0  0  0  0  0  0  0  0  0  0
    7.9050   11.8690   24.7610 O   0  0  0  0  0  0  0  0  0  0  0  0
    8.7540   11.2090   23.8300 N   0  0  0  0  0  0  0  0  0  0  0  0
    8.3970    9.9390   23.8740 C   0  0  0  0  0  0  0  0  0  0  0  0
    9.1020    8.9460   23.0060 C   0  0  0  0  0  0  0  0  0  0  0  0
    5.9480   12.7030   26.4320 N   0  0  0  0  0  0  0  0  0  0  0  0
    5.5660   13.2760   27.7190 C   0  0  0  0  0  0  0  0  0  0  0  0
    4.1230   13.7540   27.7450 C   0  0  2  0  0  0  0  0  0  0  0  0
    3.4800   13.8490   26.3710 C   0  0  0  0  0  0  0  0  0  0  0  0
    2.3590   14.7100   26.5540 O   0  0  0  0  0  0  0  0  0  0  0  0
    2.7710   15.7270   27.4720 C   0  0  0  0  0  0  0  0  0  0  0  0
    3.9730   15.1990   28.2420 C   0  0  0  0  0  0  0  0  0  0  0  0
  8  7  1  0
  7  4  1  0
  4  3  2  0
  5  3  1  0
  6  5  1  0
  7  6  2  0
  3  2  1  0
  2  1  2  0
  9  2  1  0
 10  9  1  0
 11 10  1  6
 11 15  1  0
 15 14  1  0
 14 13  1  0
 13 12  1  0
 12 11  1  0
M  END

$$$$
A71EV2A-x1346_A_250_1_A71EV2A-x0526+A+147+1
     RDKit          3D

 29 31  0  0  0  0  0  0  0  0999 V2000
    8.6890   16.8200   21.0270 Cl  0  0  0  0  0  0  0  0  0  0  0  0
    8.6310   15.1490   21.6240 C   0  0  0  0  0  0  0  0  0  0  0  0
    7.2590   14.6010   21.9600 C   0  0  0  0  0  0  0  0  0  0  0  0
    7.0630   13.4040   21.8150 O   0  0  0  0  0  0  0  0  0  0  0  0
    6.3290   15.4290   22.4320 N   0  0  0  0  0  0  0  0  0  0  0  0
    5.0750   14.9650   23.0120 C   0  0  0  0  0  0  0  0  0  0  0  0
    5.1590   14.9580   24.5460 C   0  0  1  0  0  0  0  0  0  0  0  0
    3.8000   14.9120   25.2190 C   0  0  0  0  0  0  0  0  0  0  0  0
    3.3890   13.8070   25.9190 C   0  0  0  0  0  0  0  0  0  0  0  0
    2.1210   13.7570   26.5460 C   0  0  0  0  0  0  0  0  0  0  0  0
    1.6920   12.6450   27.3150 C   0  0  0  0  0  0  0  0  0  0  0  0
    0.4700   12.6500   27.9260 C   0  0  0  0  0  0  0  0  0  0  0  0
   -0.3790   13.7400   27.8020 C   0  0  0  0  0  0  0  0  0  0  0  0
   -0.0070   14.8300   27.0680 C   0  0  0  0  0  0  0  0  0  0  0  0
    1.2570   14.8730   26.4270 C   0  0  0  0  0  0  0  0  0  0  0  0
    1.7090   15.9960   25.6990 C   0  0  0  0  0  0  0  0  0  0  0  0
    2.9490   16.0090   25.1290 C   0  0  0  0  0  0  0  0  0  0  0  0
    6.0780   13.9250   25.0210 N   0  0  0  0  0  0  0  0  0  0  0  0
    6.8810   14.1040   26.0760 C   0  0  0  0  0  0  0  0  0  0  0  0
    7.0340   15.2000   26.6090 O   0  0  0  0  0  0  0  0  0  0  0  0
    7.5850   12.8830   26.6280 C   0  0  0  0  0  0  0  0  0  0  0  0
    7.6700   11.6540   25.7610 C   0  0  0  0  0  0  0  0  0  0  0  0
    6.9730   10.4340   25.9340 C   0  0  0  0  0  0  0  0  0  0  0  0
    5.8460   10.1400   26.8700 C   0  0  0  0  0  0  0  0  0  0  0  0
    8.5580   11.3740   24.7270 C   0  0  0  0  0  0  0  0  0  0  0  0
    9.5080   12.2920   24.0400 C   0  0  0  0  0  0  0  0  0  0  0  0
    8.3990   10.0890   24.3920 N   0  0  0  0  0  0  0  0  0  0  0  0
    7.4180    9.4920   25.1190 N   0  0  0  0  0  0  0  0  0  0  0  0
    9.1500    9.3030   23.4200 C   0  0  0  0  0  0  0  0  0  0  0  0
 24 23  1  0
 23 28  2  0
 28 27  1  0
 29 27  1  0
 27 25  1  0
 26 25  1  0
 25 22  2  0
 23 22  1  0
 22 21  1  0
 21 19  1  0
 20 19  2  0
 19 18  1  0
 18  7  1  0
  7  6  1  6
  6  5  1  0
  5  3  1  0
  4  3  2  0
  3  2  1  0
  2  1  1  0
  8  7  1  0
  8 17  2  0
 17 16  1  0
 16 15  2  0
 15 14  1  0
 14 13  2  0
 13 12  1  0
 12 11  2  0
 11 10  1  0
 15 10  1  0
 10  9  2  0
  9  8  1  0
M  END

$$$$
A71EV2A-x1431_B_201_1_A71EV2A-x0526+A+147+1
     RDKit          3D

 15 15  0  0  0  0  0  0  0  0999 V2000
    8.7100    8.2990   22.9660 F   0  0  0  0  0  0  0  0  0  0  0  0
    9.2420    9.3360   23.6130 C   0  0  0  0  0  0  0  0  0  0  0  0
    9.7030   10.1590   22.6580 F   0  0  0  0  0  0  0  0  0  0  0  0
    8.2110   10.0290   24.4460 C   0  0  0  0  0  0  0  0  0  0  0  0
    7.2550    9.4820   25.1440 N   0  0  0  0  0  0  0  0  0  0  0  0
    6.6350   10.5130   25.7790 N   0  0  0  0  0  0  0  0  0  0  0  0
    5.5260   10.2380   26.6800 C   0  0  0  0  0  0  0  0  0  0  0  0
    8.1900   11.4170   24.6340 C   0  0  0  0  0  0  0  0  0  0  0  0
    7.1680   11.7030   25.4840 C   0  0  0  0  0  0  0  0  0  0  0  0
    9.1460   12.2580   24.0960 N   0  0  0  0  0  0  0  0  0  0  0  0
    8.8530   13.4260   23.4720 C   0  0  0  0  0  0  0  0  0  0  0  0
    7.7070   13.8200   23.2710 O   0  0  0  0  0  0  0  0  0  0  0  0
   10.0710   14.1980   23.0020 C   0  0  0  0  0  0  0  0  0  0  0  0
   11.1630   14.0860   23.9650 C   0  0  0  0  0  0  0  0  0  0  0  0
   12.0460   14.0280   24.6820 N   0  0  0  0  0  0  0  0  0  0  0  0
  7  6  1  0
  6  9  1  0
  9  8  2  0
 10  8  1  0
 11 10  1  0
 12 11  2  0
 13 11  1  0
 14 13  1  0
 15 14  3  0
  8  4  1  0
  4  2  1  0
  3  2  1  0
  2  1  1  0
  5  4  2  0
  6  5  1  0
M  END

$$$$
A71EV2A-x1445_B_201_1_A71EV2A-x0526+A+147+1
     RDKit          3D

 18 18  0  0  0  0  0  0  0  0999 V2000
    0.7930   10.8450   29.2880 F   0  0  0  0  0  0  0  0  0  0  0  0
    1.6450   10.0100   29.8890 C   0  0  0  0  0  0  0  0  0  0  0  0
    1.3730   10.0620   31.1930 F   0  0  0  0  0  0  0  0  0  0  0  0
    1.3220    8.7830   29.4820 F   0  0  0  0  0  0  0  0  0  0  0  0
    3.0820   10.3540   29.5910 C   0  0  2  0  0  0  0  0  0  0  0  0
    3.3160   11.8390   29.8690 C   0  0  0  0  0  0  0  0  0  0  0  0
    3.4070    9.9970   28.1340 C   0  0  0  0  0  0  0  0  0  0  0  0
    4.7720   10.4460   27.6340 C   0  0  0  0  0  0  0  0  0  0  0  0
    5.6110   10.9550   28.3750 O   0  0  0  0  0  0  0  0  0  0  0  0
    4.9760   10.2760   26.2960 N   0  0  0  0  0  0  0  0  0  0  0  0
    6.1390   10.6150   25.6050 C   0  0  0  0  0  0  0  0  0  0  0  0
    7.0540    9.8460   24.9410 C   0  0  0  0  0  0  0  0  0  0  0  0
    6.5020   11.9190   25.4180 N   0  0  0  0  0  0  0  0  0  0  0  0
    5.8550   13.1390   25.8830 C   0  0  0  0  0  0  0  0  0  0  0  0
    7.6220   12.0170   24.6520 N   0  0  0  0  0  0  0  0  0  0  0  0
    7.9540   10.7400   24.3440 C   0  0  0  0  0  0  0  0  0  0  0  0
    8.9740   10.4680   23.5240 O   0  0  0  0  0  0  0  0  0  0  0  0
    9.2580    9.0780   23.2270 C   0  0  0  0  0  0  0  0  0  0  0  0
 18 17  1  0
 17 16  1  0
 16 12  1  0
 12 11  2  0
 11 10  1  0
 10  8  1  0
  9  8  2  0
  8  7  1  0
  7  5  1  0
  5  6  1  6
  5  2  1  0
  3  2  1  0
  4  2  1  0
  2  1  1  0
 13 11  1  0
 14 13  1  0
 15 13  1  0
 16 15  2  0
M  END

$$$$
