XX01ZVNS2B-x1325_B_203_XX01ZVNS2B-x1291+B+301+1
     RDKit          3D

 22 24  0  0  0  0  0  0  0  0999 V2000
   -2.0630    6.7120  -16.2490 C   0  0  0  0  0  0  0  0  0  0  0  0
   -3.4590    6.2470  -16.5120 C   0  0  0  0  0  0  0  0  0  0  0  0
   -4.1040    6.7710  -17.5600 N   0  0  0  0  0  0  0  0  0  0  0  0
   -5.3470    6.3390  -17.7930 C   0  0  0  0  0  0  0  0  0  0  0  0
   -6.0060    5.4460  -16.9630 C   0  0  0  0  0  0  0  0  0  0  0  0
   -7.3550    4.8980  -17.2920 C   0  0  0  0  0  0  0  0  0  0  0  0
   -7.6570    4.5890  -18.6190 C   0  0  0  0  0  0  0  0  0  0  0  0
   -8.8620    4.0150  -18.9740 C   0  0  0  0  0  0  0  0  0  0  0  0
   -9.8170    3.7750  -18.0140 C   0  0  0  0  0  0  0  0  0  0  0  0
   -9.5390    4.0530  -16.6920 C   0  0  0  0  0  0  0  0  0  0  0  0
   -8.3360    4.6530  -16.3160 C   0  0  0  0  0  0  0  0  0  0  0  0
   -8.1750    4.9910  -14.8620 C   0  0  0  0  0  0  0  0  0  0  0  0
   -7.7340    6.0770  -14.5170 O   0  0  0  0  0  0  0  0  0  0  0  0
   -8.5290    4.0250  -13.9680 N   0  0  0  0  0  0  0  0  0  0  0  0
   -8.4840    4.1660  -12.5700 C   0  0  0  0  0  0  0  0  0  0  0  0
   -8.6810    3.1670  -11.6080 C   0  0  0  0  0  0  0  0  0  0  0  0
   -8.5920    3.6430  -10.3740 N   0  0  0  0  0  0  0  0  0  0  0  0
   -8.3340    4.9790  -10.5360 N   0  0  0  0  0  0  0  0  0  0  0  0
   -8.1810    5.8480   -9.3720 C   0  0  0  0  0  0  0  0  0  0  0  0
   -8.2840    5.3330  -11.8430 C   0  0  0  0  0  0  0  0  0  0  0  0
   -5.2090    4.9040  -15.9630 C   0  0  0  0  0  0  0  0  0  0  0  0
   -3.9690    5.3220  -15.6960 N   0  0  0  0  0  0  0  0  0  0  0  0
  1  2  1  0
  2  3  2  0
  3  4  1  0
  4  5  2  0
  5  6  1  0
  6  7  2  0
  7  8  1  0
  8  9  2  0
  9 10  1  0
 10 11  2  0
 11 12  1  0
 12 13  2  0
 12 14  1  0
 14 15  1  0
 15 16  1  0
 16 17  2  0
 17 18  1  0
 18 19  1  0
 18 20  1  0
  5 21  1  0
 21 22  2  0
  2 22  1  0
  6 11  1  0
 15 20  2  0
M  END

$$$$
