A71EV2A-x0540_A_147_1_A71EV2A-x0540+A+147+1
     RDKit          3D

 18 19  0  0  0  0  0  0  0  0999 V2000
   14.6340   23.3890   23.2100 N   0  0  0  0  0  0  0  0  0  0  0  0
   13.6710   23.1840   23.7530 C   0  0  0  0  0  0  0  0  0  0  0  0
   12.4840   22.9060   24.4700 C   0  0  0  0  0  0  0  0  0  0  0  0
   11.4720   23.8570   24.5320 C   0  0  0  0  0  0  0  0  0  0  0  0
   10.3200   23.5880   25.2420 C   0  0  0  0  0  0  0  0  0  0  0  0
   12.3240   21.6890   25.1230 C   0  0  0  0  0  0  0  0  0  0  0  0
   11.1690   21.4400   25.8200 C   0  0  0  0  0  0  0  0  0  0  0  0
   10.1550   22.3820   25.8960 C   0  0  0  0  0  0  0  0  0  0  0  0
    8.9220   22.0740   26.6960 C   0  0  0  0  0  0  0  0  0  0  0  0
    9.2750   22.1100   28.1280 N   0  0  0  0  0  0  0  0  0  0  0  0
    8.1070   21.9400   29.0120 C   0  0  0  0  0  0  0  0  0  0  0  0
    7.4520   20.5770   28.9550 C   0  0  0  0  0  0  0  0  0  0  0  0
    6.2240   20.3930   28.3350 C   0  0  0  0  0  0  0  0  0  0  0  0
    5.6280   19.1460   28.2840 C   0  0  0  0  0  0  0  0  0  0  0  0
    8.0770   19.4700   29.5100 C   0  0  0  0  0  0  0  0  0  0  0  0
    7.4990   18.2130   29.4440 C   0  0  0  0  0  0  0  0  0  0  0  0
    6.2870   18.0900   28.8310 C   0  0  0  0  0  0  0  0  0  0  0  0
    5.7220   16.8600   28.7420 F   0  0  0  0  0  0  0  0  0  0  0  0
 18 17  1  0
 17 14  1  0
 14 13  2  0
 13 12  1  0
 12 11  1  0
 11 10  1  0
 10  9  1  0
  9  8  1  0
  8  5  2  0
  5  4  1  0
  4  3  2  0
  3  2  1  0
  2  1  3  0
  6  3  1  0
  7  6  2  0
  8  7  1  0
 15 12  2  0
 16 15  1  0
 17 16  2  0
M  END

$$$$
