XX01ZVNS2B-x0846_B_301_XX01ZVNS2B-x0846+B+301+1
     RDKit          3D

 18 20  0  0  0  0  0  0  0  0999 V2000
  -13.5050   10.3160  -12.4280 O   0  0  0  0  0  0  0  0  0  0  0  0
  -12.3240    9.6490  -12.4470 C   0  0  0  0  0  0  0  0  0  0  0  0
  -11.4400    9.7570  -11.3670 C   0  0  0  0  0  0  0  0  0  0  0  0
  -10.2100    9.1060  -11.4540 C   0  0  0  0  0  0  0  0  0  0  0  0
   -9.8740    8.3580  -12.5730 C   0  0  0  0  0  0  0  0  0  0  0  0
  -10.7650    8.2390  -13.6190 C   0  0  0  0  0  0  0  0  0  0  0  0
  -11.9880    8.8840  -13.5630 C   0  0  0  0  0  0  0  0  0  0  0  0
  -11.8220   10.5630  -10.1430 C   0  0  0  0  0  0  0  0  0  0  0  0
  -11.8150   12.0040  -10.3710 N   0  0  0  0  0  0  0  0  0  0  0  0
  -12.8480   12.8080  -10.0880 C   0  0  0  0  0  0  0  0  0  0  0  0
  -12.6930   14.1520  -10.0420 N   0  0  0  0  0  0  0  0  0  0  0  0
  -13.9380   14.6970   -9.7860 C   0  0  0  0  0  0  0  0  0  0  0  0
  -14.8110   13.6140   -9.6970 C   0  0  0  0  0  0  0  0  0  0  0  0
  -14.1020   12.4250   -9.8780 N   0  0  0  0  0  0  0  0  0  0  0  0
  -14.3740   16.0060   -9.6310 C   0  0  0  0  0  0  0  0  0  0  0  0
  -15.7250   16.2220   -9.3870 C   0  0  0  0  0  0  0  0  0  0  0  0
  -16.6150   15.1500   -9.3230 C   0  0  0  0  0  0  0  0  0  0  0  0
  -16.1690   13.8410   -9.4780 C   0  0  0  0  0  0  0  0  0  0  0  0
  2  1  1  0
  2  7  2  0
  7  6  1  0
  6  5  2  0
  5  4  1  0
  4  3  2  0
  3  2  1  0
  8  3  1  0
  9  8  1  0
 10  9  1  0
 10 14  2  0
 14 13  1  0
 13 18  2  0
 18 17  1  0
 17 16  2  0
 16 15  1  0
 15 12  2  0
 13 12  1  0
 12 11  1  0
 11 10  1  0
M  END

$$$$
