A71EV2A-x0351_A_301_1_A71EV2A-x0526+A+147+1
     RDKit          3D

 16 17  0  0  0  0  0  0  0  0999 V2000
    8.1300   14.9420   28.4760 O   0  0  0  0  0  0  0  0  0  0  0  0
    7.0380   15.5670   27.7910 S   0  0  0  0  0  0  0  0  0  0  0  0
    6.9030   16.9930   27.8370 O   0  0  0  0  0  0  0  0  0  0  0  0
    5.5210   14.8800   28.4220 C   0  0  0  0  0  0  0  0  0  0  0  0
    4.3080   15.6720   27.9930 C   0  0  0  0  0  0  0  0  0  0  0  0
    7.1790   15.1570   26.2160 N   0  0  0  0  0  0  0  0  0  0  0  0
    6.2960   14.2190   25.5110 C   0  0  0  0  0  0  0  0  0  0  0  0
    6.9700   12.8890   25.2820 C   0  0  0  0  0  0  0  0  0  0  0  0
    8.0770   12.7960   24.4400 C   0  0  0  0  0  0  0  0  0  0  0  0
    8.5590   11.5470   24.1110 C   0  0  0  0  0  0  0  0  0  0  0  0
    9.5860   11.2210   23.2520 O   0  0  0  0  0  0  0  0  0  0  0  0
    9.6990    9.7970   23.3200 C   0  0  0  0  0  0  0  0  0  0  0  0
    8.5940    9.2990   24.0720 O   0  0  0  0  0  0  0  0  0  0  0  0
    7.9930   10.4090   24.6220 C   0  0  0  0  0  0  0  0  0  0  0  0
    6.9330   10.4730   25.5050 C   0  0  0  0  0  0  0  0  0  0  0  0
    6.4290   11.7240   25.8230 C   0  0  0  0  0  0  0  0  0  0  0  0
  5  4  1  0
  4  2  1  0
  3  2  2  0
  2  1  2  0
  6  2  1  0
  7  6  1  0
  8  7  1  0
  8 16  2  0
 16 15  1  0
 15 14  2  0
 14 13  1  0
 13 12  1  0
 12 11  1  0
 11 10  1  0
 14 10  1  0
 10  9  2  0
  9  8  1  0
M  END
