XX01ZVNS2B-x1398_B_301_XX01ZVNS2B-x1291+B+301+1
     RDKit          3D

 22 24  0  0  0  0  0  0  0  0999 V2000
   -2.2660    6.9240  -15.8770 C   0  0  0  0  0  0  0  0  0  0  0  0
   -3.6150    6.3950  -16.2410 C   0  0  0  0  0  0  0  0  0  0  0  0
   -4.2750    6.9750  -17.2530 N   0  0  0  0  0  0  0  0  0  0  0  0
   -5.4820    6.4850  -17.5610 C   0  0  0  0  0  0  0  0  0  0  0  0
   -6.0740    5.4360  -16.8680 C   0  0  0  0  0  0  0  0  0  0  0  0
   -7.4150    4.8760  -17.2150 C   0  0  0  0  0  0  0  0  0  0  0  0
   -7.6630    4.4990  -18.5370 C   0  0  0  0  0  0  0  0  0  0  0  0
   -8.8720    3.9520  -18.9170 C   0  0  0  0  0  0  0  0  0  0  0  0
   -9.8560    3.7470  -17.9770 C   0  0  0  0  0  0  0  0  0  0  0  0
   -9.6340    4.0890  -16.6600 C   0  0  0  0  0  0  0  0  0  0  0  0
   -8.4200    4.6500  -16.2540 C   0  0  0  0  0  0  0  0  0  0  0  0
   -8.2810    5.0130  -14.7980 C   0  0  0  0  0  0  0  0  0  0  0  0
   -7.8330    6.1000  -14.4650 O   0  0  0  0  0  0  0  0  0  0  0  0
   -8.6850    4.0850  -13.8820 N   0  0  0  0  0  0  0  0  0  0  0  0
   -8.6150    4.2410  -12.4850 C   0  0  0  0  0  0  0  0  0  0  0  0
   -8.9380    3.2800  -11.5120 C   0  0  0  0  0  0  0  0  0  0  0  0
   -8.7660    3.7370  -10.2820 N   0  0  0  0  0  0  0  0  0  0  0  0
   -8.3150    5.0180  -10.4480 N   0  0  0  0  0  0  0  0  0  0  0  0
   -8.0140    5.8500   -9.2850 C   0  0  0  0  0  0  0  0  0  0  0  0
   -8.2080    5.3540  -11.7570 C   0  0  0  0  0  0  0  0  0  0  0  0
   -5.2950    4.9060  -15.8470 C   0  0  0  0  0  0  0  0  0  0  0  0
   -4.0880    5.3750  -15.5190 N   0  0  0  0  0  0  0  0  0  0  0  0
  1  2  1  0
  2  3  2  0
  3  4  1  0
  4  5  2  0
  5  6  1  0
  6  7  2  0
  7  8  1  0
  8  9  2  0
  9 10  1  0
 10 11  2  0
 11 12  1  0
 12 13  2  0
 12 14  1  0
 14 15  1  0
 15 16  1  0
 16 17  2  0
 17 18  1  0
 18 19  1  0
 18 20  1  0
  5 21  1  0
 21 22  2  0
  2 22  1  0
  6 11  1  0
 15 20  2  0
M  END

$$$$
