XX01ZVNS2B-x0800_B_301_XX01ZVNS2B-x1291+B+301+1
     RDKit          3D

 11 12  0  0  0  0  0  0  0  0999 V2000
   -3.5490    5.0090  -19.1170 O   0  0  0  0  0  0  0  0  0  0  0  0
   -4.1300    4.9470  -18.0150 C   0  0  0  0  0  0  0  0  0  0  0  0
   -3.5020    4.6720  -16.8750 N   0  0  0  0  0  0  0  0  0  0  0  0
   -5.5950    5.2140  -17.9130 C   0  0  0  0  0  0  0  0  0  0  0  0
   -6.4720    4.8740  -18.9400 N   0  0  0  0  0  0  0  0  0  0  0  0
   -7.6470    4.7360  -18.3450 C   0  0  0  0  0  0  0  0  0  0  0  0
   -7.5690    4.9730  -17.0190 N   0  0  0  0  0  0  0  0  0  0  0  0
   -6.2780    5.2700  -16.7350 C   0  0  0  0  0  0  0  0  0  0  0  0
   -8.9210    4.3680  -18.9620 C   0  0  0  0  0  0  0  0  0  0  0  0
  -10.1890    5.0340  -18.5090 C   0  0  0  0  0  0  0  0  0  0  0  0
   -9.9530    3.6170  -18.1700 C   0  0  0  0  0  0  0  0  0  0  0  0
  3  2  1  0
  2  1  2  0
  4  2  1  0
  4  8  2  0
  8  7  1  0
  7  6  1  0
  6  5  2  0
  5  4  1  0
  9  6  1  0
  9 11  1  0
 11 10  1  0
 10  9  1  0
M  END

$$$$
