A71EV2A-x1148_A_147_1_A71EV2A-x0395+A+148+1
     RDKit          3D

  6  6  0  0  0  0  0  0  0  0999 V2000
   12.6770   -8.4860   14.4860 Br  0  0  0  0  0  0  0  0  0  0  0  0
   11.4710   -8.5360   13.0510 C   0  0  0  0  0  0  0  0  0  0  0  0
   10.4200   -7.6760   12.9110 N   0  0  0  0  0  0  0  0  0  0  0  0
    9.7930   -8.0500   11.8060 C   0  0  0  0  0  0  0  0  0  0  0  0
   10.3840   -9.1000   11.2210 N   0  0  0  0  0  0  0  0  0  0  0  0
   11.4630   -9.4380   11.9890 C   0  0  0  0  0  0  0  0  0  0  0  0
  2  1  1  0
  2  6  2  0
  6  5  1  0
  5  4  1  0
  4  3  2  0
  3  2  1  0
M  END

$$$$
