XX01ZVNS2B-x0455_B_204_XX01ZVNS2B-x1291+B+301+1
     RDKit          3D

 10 11  0  0  0  0  0  0  0  0999 V2000
   -7.8230    4.7190  -14.9190 C   0  0  0  0  0  0  0  0  0  0  0  0
   -6.3070    4.6880  -14.7950 C   0  0  0  0  0  0  0  0  0  0  0  0
   -8.2950    4.5720  -16.3400 C   0  0  0  0  0  0  0  0  0  0  0  0
   -7.4260    4.8260  -17.4170 C   0  0  0  0  0  0  0  0  0  0  0  0
   -6.1250    5.2160  -17.2190 N   0  0  0  0  0  0  0  0  0  0  0  0
   -5.5440    5.4080  -15.8960 C   0  0  0  0  0  0  0  0  0  0  0  0
   -9.5650    4.1730  -16.5090 N   0  0  0  0  0  0  0  0  0  0  0  0
  -10.0130    4.0170  -17.7640 C   0  0  0  0  0  0  0  0  0  0  0  0
   -9.2330    4.2310  -18.8790 C   0  0  0  0  0  0  0  0  0  0  0  0
   -7.9190    4.6380  -18.7040 C   0  0  0  0  0  0  0  0  0  0  0  0
  2  6  1  0
  6  5  1  0
  5  4  1  0
  4 10  2  0
 10  9  1  0
  9  8  2  0
  8  7  1  0
  7  3  2  0
  4  3  1  0
  3  1  1  0
  2  1  1  0
M  END

$$$$
