A71EV2A-x0207_A_151_1_A71EV2A-x0526+A+147+1
     RDKit          3D

 15 16  0  0  0  0  0  0  0  0999 V2000
    5.3470   10.5610   26.8300 O   0  0  0  0  0  0  0  0  0  0  0  0
    6.0490   11.3850   26.2470 C   0  0  0  0  0  0  0  0  0  0  0  0
    7.0710   10.9450   25.2950 C   0  0  0  0  0  0  0  0  0  0  0  0
    7.3410    9.7240   24.7770 C   0  0  0  0  0  0  0  0  0  0  0  0
    7.9050   11.8690   24.7610 O   0  0  0  0  0  0  0  0  0  0  0  0
    8.7540   11.2090   23.8300 N   0  0  0  0  0  0  0  0  0  0  0  0
    8.3970    9.9390   23.8740 C   0  0  0  0  0  0  0  0  0  0  0  0
    9.1020    8.9460   23.0060 C   0  0  0  0  0  0  0  0  0  0  0  0
    5.9480   12.7030   26.4320 N   0  0  0  0  0  0  0  0  0  0  0  0
    5.5660   13.2760   27.7190 C   0  0  0  0  0  0  0  0  0  0  0  0
    4.1230   13.7540   27.7450 C   0  0  2  0  0  0  0  0  0  0  0  0
    3.4800   13.8490   26.3710 C   0  0  0  0  0  0  0  0  0  0  0  0
    2.3590   14.7100   26.5540 O   0  0  0  0  0  0  0  0  0  0  0  0
    2.7710   15.7270   27.4720 C   0  0  0  0  0  0  0  0  0  0  0  0
    3.9730   15.1990   28.2420 C   0  0  0  0  0  0  0  0  0  0  0  0
  8  7  1  0
  7  4  1  0
  4  3  2  0
  5  3  1  0
  6  5  1  0
  7  6  2  0
  3  2  1  0
  2  1  2  0
  9  2  1  0
 10  9  1  0
 11 10  1  6
 11 15  1  0
 15 14  1  0
 14 13  1  0
 13 12  1  0
 12 11  1  0
M  END
