A71EV2A-x1169_A_151_1_A71EV2A-x0526+A+147+1
     RDKit          3D

  7  7  0  0  0  0  0  0  0  0999 V2000
    9.6640    9.2780   23.4640 N   0  0  0  0  0  0  0  0  0  0  0  0
    8.9230    9.7180   24.1610 C   0  0  0  0  0  0  0  0  0  0  0  0
    7.9140   10.2150   25.0500 C   0  0  0  0  0  0  0  0  0  0  0  0
    6.8080    9.4830   25.3780 N   0  0  0  0  0  0  0  0  0  0  0  0
    6.1390   10.2610   26.1490 C   0  0  0  0  0  0  0  0  0  0  0  0
    6.6970   11.4710   26.3730 O   0  0  0  0  0  0  0  0  0  0  0  0
    7.8530   11.4090   25.6570 C   0  0  0  0  0  0  0  0  0  0  0  0
  2  1  3  0
  3  2  1  0
  3  7  2  0
  7  6  1  0
  6  5  1  0
  5  4  2  0
  4  3  1  0
M  END

$$$$
