XX01ZVNS2B-x0227_B_301_XX01ZVNS2B-x1291+B+301+1
     RDKit          3D

 13 14  0  0  0  0  0  0  0  0999 V2000
   -5.6700    5.1910  -20.1900 N   0  0  0  0  0  0  0  0  0  0  0  0
   -5.7460    6.2480  -19.1840 C   0  0  0  0  0  0  0  0  0  0  0  0
   -6.0600    5.6990  -17.7720 C   0  0  0  0  0  0  0  0  0  0  0  0
   -4.9740    4.6770  -17.3590 C   0  0  0  0  0  0  0  0  0  0  0  0
   -4.0820    5.3900  -16.3550 C   0  0  0  0  0  0  0  0  0  0  0  0
   -4.9430    6.3410  -15.6880 C   0  0  0  0  0  0  0  0  0  0  0  0
   -5.8630    6.8740  -16.7840 C   0  0  0  0  0  0  0  0  0  0  0  0
   -7.4710    5.1270  -17.6580 C   0  0  0  0  0  0  0  0  0  0  0  0
   -8.0290    4.8830  -16.4090 C   0  0  0  0  0  0  0  0  0  0  0  0
   -9.3030    4.3470  -16.3450 C   0  0  0  0  0  0  0  0  0  0  0  0
   -9.9890    4.0740  -17.5060 C   0  0  0  0  0  0  0  0  0  0  0  0
   -9.3680    4.3460  -18.7040 C   0  0  0  0  0  0  0  0  0  0  0  0
   -8.1280    4.8590  -18.7990 N   0  0  0  0  0  0  0  0  0  0  0  0
  2  1  1  0
  3  2  1  0
  8  3  1  0
  8 13  2  0
 13 12  1  0
 12 11  2  0
 11 10  1  0
 10  9  2  0
  9  8  1  0
  3  7  1  0
  7  6  1  0
  6  5  1  0
  5  4  1  0
  4  3  1  0
M  END
