A71EV2A-x0556_A_147_1_A71EV2A-x0526+A+147+1
     RDKit          3D

 14 15  0  0  0  0  0  0  0  0999 V2000
    5.2070   11.5100   26.4560 O   0  0  0  0  0  0  0  0  0  0  0  0
    5.9270   10.5560   26.4000 C   0  0  0  0  0  0  0  0  0  0  0  0
    7.0290   10.5280   25.4490 C   0  0  0  0  0  0  0  0  0  0  0  0
    7.4610   11.6270   24.9170 C   0  0  0  0  0  0  0  0  0  0  0  0
    6.9490   12.8010   25.3020 N   0  0  0  0  0  0  0  0  0  0  0  0
    8.4570   11.2830   24.0640 C   0  0  0  0  0  0  0  0  0  0  0  0
    7.6830    9.4370   25.0300 N   0  0  0  0  0  0  0  0  0  0  0  0
    8.5640    9.9550   24.1600 N   0  0  0  0  0  0  0  0  0  0  0  0
    9.5260    9.0840   23.5040 C   0  0  0  0  0  0  0  0  0  0  0  0
    5.8490    9.5260   27.2430 N   0  0  0  0  0  0  0  0  0  0  0  0
    4.6510    9.3080   28.0490 C   0  0  0  0  0  0  0  0  0  0  0  0
    3.3800    8.7740   27.3150 C   0  0  0  0  0  0  0  0  0  0  0  0
    3.1150    8.1540   28.6780 C   0  0  0  0  0  0  0  0  0  0  0  0
    4.6130    8.1470   28.8830 C   0  0  0  0  0  0  0  0  0  0  0  0
  9  8  1  0
  8  6  1  0
  6  4  2  0
  5  4  1  0
  4  3  1  0
  7  3  2  0
  8  7  1  0
  3  2  1  0
  2  1  2  0
 10  2  1  0
 11 10  1  0
 11 14  1  0
 14 13  1  0
 13 12  1  0
 12 11  1  0
M  END
