A71EV2A-x0351_A_302_1_A71EV2A-x0528+A+201+1
     RDKit          3D

 16 17  0  0  0  0  0  0  0  0999 V2000
   25.0180   17.9050   25.8850 O   0  0  0  0  0  0  0  0  0  0  0  0
   24.7110   16.7540   25.0870 S   0  0  0  0  0  0  0  0  0  0  0  0
   25.5590   15.6000   25.1640 O   0  0  0  0  0  0  0  0  0  0  0  0
   23.0430   16.2640   25.4670 C   0  0  0  0  0  0  0  0  0  0  0  0
   22.3780   15.5420   24.3210 C   0  0  0  0  0  0  0  0  0  0  0  0
   24.7290   17.2460   23.5240 N   0  0  0  0  0  0  0  0  0  0  0  0
   24.0170   18.4570   23.0940 C   0  0  0  0  0  0  0  0  0  0  0  0
   24.9070   19.5070   22.4730 C   0  0  0  0  0  0  0  0  0  0  0  0
   25.9100   19.1620   21.5660 C   0  0  0  0  0  0  0  0  0  0  0  0
   26.6550   20.1680   20.9870 C   0  0  0  0  0  0  0  0  0  0  0  0
   27.6420   20.0720   20.0290 O   0  0  0  0  0  0  0  0  0  0  0  0
   27.8510   21.4110   19.5850 C   0  0  0  0  0  0  0  0  0  0  0  0
   27.2940   22.2770   20.5700 O   0  0  0  0  0  0  0  0  0  0  0  0
   26.4420   21.4810   21.3010 C   0  0  0  0  0  0  0  0  0  0  0  0
   25.4750   21.8510   22.2080 C   0  0  0  0  0  0  0  0  0  0  0  0
   24.7060   20.8520   22.7800 C   0  0  0  0  0  0  0  0  0  0  0  0
  5  4  1  0
  4  2  1  0
  3  2  2  0
  2  1  2  0
  6  2  1  0
  7  6  1  0
  8  7  1  0
  8 16  2  0
 16 15  1  0
 15 14  2  0
 14 13  1  0
 13 12  1  0
 12 11  1  0
 11 10  1  0
 14 10  1  0
 10  9  2  0
  9  8  1  0
M  END

$$$$
