A71EV2A-x0487_A_250_1_A71EV2A-x0526+A+147+1
     RDKit          3D

 11 11  0  0  0  0  0  0  0  0999 V2000
   10.9250   13.8090   24.7280 O   0  0  0  0  0  0  0  0  0  0  0  0
   10.9290   13.3970   23.5700 C   0  0  0  0  0  0  0  0  0  0  0  0
   11.8190   13.9830   22.5240 C   0  0  0  0  0  0  0  0  0  0  0  0
   10.1120   12.3990   23.1510 N   0  0  0  0  0  0  0  0  0  0  0  0
    9.0720   11.8220   23.9320 C   0  0  0  0  0  0  0  0  0  0  0  0
    8.8490   10.4360   23.8480 C   0  0  0  0  0  0  0  0  0  0  0  0
    9.7020    9.5340   23.0000 C   0  0  0  0  0  0  0  0  0  0  0  0
    7.8220    9.9190   24.6320 C   0  0  0  0  0  0  0  0  0  0  0  0
    7.0520   10.6430   25.4530 N   0  0  0  0  0  0  0  0  0  0  0  0
    7.2890   11.9580   25.5080 C   0  0  0  0  0  0  0  0  0  0  0  0
    8.2800   12.5960   24.7850 C   0  0  0  0  0  0  0  0  0  0  0  0
  3  2  1  0
  2  1  2  0
  4  2  1  0
  5  4  1  0
  5 11  2  0
 11 10  1  0
 10  9  2  0
  9  8  1  0
  8  6  2  0
  6  5  1  0
  7  6  1  0
M  END

$$$$
