XX01ZVNS2B-x0719_B_301_XX01ZVNS2B-x1291+B+301+1
     RDKit          3D

 10 10  0  0  0  0  0  0  0  0999 V2000
   -7.2610    1.7910  -13.8210 O   0  0  0  0  0  0  0  0  0  0  0  0
   -6.3240    2.5690  -13.9940 C   0  0  0  0  0  0  0  0  0  0  0  0
   -4.9940    2.3720  -13.3240 C   0  0  0  0  0  0  0  0  0  0  0  0
   -6.4280    3.6330  -14.8020 N   0  0  0  0  0  0  0  0  0  0  0  0
   -7.6940    4.3160  -14.9920 C   0  0  0  0  0  0  0  0  0  0  0  0
   -8.1930    4.3100  -16.4540 C   0  0  0  0  0  0  0  0  0  0  0  0
   -7.5000    4.8400  -17.4810 N   0  0  0  0  0  0  0  0  0  0  0  0
   -8.3230    4.8460  -18.5700 C   0  0  0  0  0  0  0  0  0  0  0  0
   -9.4950    4.3090  -18.1650 C   0  0  0  0  0  0  0  0  0  0  0  0
   -9.4190    3.9570  -16.8370 N   0  0  0  0  0  0  0  0  0  0  0  0
  3  2  1  0
  2  1  2  0
  4  2  1  0
  5  4  1  0
  6  5  1  0
  6 10  2  0
 10  9  1  0
  9  8  2  0
  8  7  1  0
  7  6  1  0
M  END
