XX01ZVNS2B-x0051_B_301_XX01ZVNS2B-x1291+B+301+1
     RDKit          3D

 12 13  0  0  0  0  0  0  0  0999 V2000
  -10.3870    4.1190  -18.6950 N   0  0  0  0  0  0  0  0  0  0  0  0
   -9.1560    4.4970  -18.3440 C   0  0  0  0  0  0  0  0  0  0  0  0
   -8.8720    5.1770  -16.7490 S   0  0  0  0  0  0  0  0  0  0  0  0
   -8.0990    4.3830  -19.1080 N   0  0  0  0  0  0  0  0  0  0  0  0
   -6.9580    4.8470  -18.4480 C   0  0  0  0  0  0  0  0  0  0  0  0
   -7.1790    5.3010  -17.1430 C   0  0  0  0  0  0  0  0  0  0  0  0
   -6.1270    5.7430  -16.3500 C   0  0  0  0  0  0  0  0  0  0  0  0
   -4.8440    5.7420  -16.8670 C   0  0  0  0  0  0  0  0  0  0  0  0
   -5.6660    4.8800  -18.9760 C   0  0  0  0  0  0  0  0  0  0  0  0
   -4.6190    5.3220  -18.1700 C   0  0  0  0  0  0  0  0  0  0  0  0
   -3.2920    5.3970  -18.5120 O   0  0  0  0  0  0  0  0  0  0  0  0
   -2.9070    4.9900  -19.8280 C   0  0  0  0  0  0  0  0  0  0  0  0
 12 11  1  0
 11 10  1  0
 10  8  2  0
  8  7  1  0
  7  6  2  0
  6  3  1  0
  3  2  1  0
  2  1  1  0
  4  2  2  0
  5  4  1  0
  6  5  1  0
  9  5  2  0
 10  9  1  0
M  END

$$$$
