XX01ZVNS2B-x0846_B_401_XX01ZVNS2B-x1291+B+301+1
     RDKit          3D

 18 20  0  0  0  0  0  0  0  0999 V2000
   -6.5740    7.6110  -24.5040 O   0  0  0  0  0  0  0  0  0  0  0  0
   -5.9170    8.0580  -23.4060 C   0  0  0  0  0  0  0  0  0  0  0  0
   -5.6220    9.4170  -23.2730 C   0  0  0  0  0  0  0  0  0  0  0  0
   -4.9180    9.8330  -22.1450 C   0  0  0  0  0  0  0  0  0  0  0  0
   -4.5260    8.9250  -21.1750 C   0  0  0  0  0  0  0  0  0  0  0  0
   -4.8330    7.5930  -21.3130 C   0  0  0  0  0  0  0  0  0  0  0  0
   -5.5260    7.1530  -22.4250 C   0  0  0  0  0  0  0  0  0  0  0  0
   -6.0790   10.4050  -24.3200 C   0  0  0  0  0  0  0  0  0  0  0  0
   -6.0720    9.8620  -25.6720 N   0  0  0  0  0  0  0  0  0  0  0  0
   -7.1730    9.4340  -26.2990 C   0  0  0  0  0  0  0  0  0  0  0  0
   -7.1680    8.3080  -27.0480 N   0  0  0  0  0  0  0  0  0  0  0  0
   -8.4650    8.1030  -27.4810 C   0  0  0  0  0  0  0  0  0  0  0  0
   -9.2080    9.1590  -26.9580 C   0  0  0  0  0  0  0  0  0  0  0  0
   -8.3690    9.9970  -26.2210 N   0  0  0  0  0  0  0  0  0  0  0  0
   -9.0540    7.0920  -28.2270 C   0  0  0  0  0  0  0  0  0  0  0  0
  -10.4250    7.1510  -28.4340 C   0  0  0  0  0  0  0  0  0  0  0  0
  -11.1810    8.1890  -27.9030 C   0  0  0  0  0  0  0  0  0  0  0  0
  -10.5830    9.2070  -27.1730 C   0  0  0  0  0  0  0  0  0  0  0  0
  2  1  1  0
  2  7  2  0
  7  6  1  0
  6  5  2  0
  5  4  1  0
  4  3  2  0
  3  2  1  0
  8  3  1  0
  9  8  1  0
 10  9  1  0
 10 14  2  0
 14 13  1  0
 13 18  2  0
 18 17  1  0
 17 16  2  0
 16 15  1  0
 15 12  2  0
 13 12  1  0
 12 11  1  0
 11 10  1  0
M  END
