XX01ZVNS2B-x2135_B_301_XX01ZVNS2B-x1291+B+301+1
     RDKit          3D

 22 24  0  0  0  0  0  0  0  0999 V2000
   -5.1560    5.0130  -18.2440 C   0  0  0  0  0  0  0  0  0  0  0  0
   -6.6150    4.7640  -18.1640 C   0  0  0  0  0  0  0  0  0  0  0  0
   -7.2750    4.4970  -17.0530 N   0  0  0  0  0  0  0  0  0  0  0  0
   -8.6050    4.3580  -17.4030 C   0  0  0  0  0  0  0  0  0  0  0  0
   -9.6440    4.0060  -16.3890 C   0  0  0  0  0  0  0  0  0  0  0  0
   -9.1840    4.1130  -15.0130 N   0  0  0  0  0  0  0  0  0  0  0  0
   -8.8090    5.2790  -14.4860 C   0  0  0  0  0  0  0  0  0  0  0  0
   -8.6810    6.2910  -15.1720 O   0  0  0  0  0  0  0  0  0  0  0  0
   -8.5550    5.3120  -13.0410 C   0  0  0  0  0  0  0  0  0  0  0  0
   -8.4710    4.1760  -12.2700 N   0  0  0  0  0  0  0  0  0  0  0  0
   -8.2990    4.5820  -10.9720 C   0  0  0  0  0  0  0  0  0  0  0  0
   -7.9880    3.7600   -9.7600 C   0  0  1  0  0  0  0  0  0  0  0  0
   -8.8990    4.1230   -8.5640 C   0  0  0  0  0  0  0  0  0  0  0  0
   -9.7210    2.9880   -7.9520 C   0  0  0  0  0  0  0  0  0  0  0  0
   -9.0160    1.6570   -8.0740 C   0  0  0  0  0  0  0  0  0  0  0  0
   -8.8220    1.3790   -9.4990 N   0  0  0  0  0  0  0  0  0  0  0  0
   -7.8310    2.2800  -10.1060 C   0  0  0  0  0  0  0  0  0  0  0  0
   -8.2270    5.9230  -10.9370 N   0  0  0  0  0  0  0  0  0  0  0  0
   -8.4300    6.3810  -12.1710 C   0  0  0  0  0  0  0  0  0  0  0  0
   -8.4920    7.8520  -12.4070 C   0  0  0  0  0  0  0  0  0  0  0  0
   -8.7210    4.5390  -18.7470 C   0  0  0  0  0  0  0  0  0  0  0  0
   -7.4590    4.8130  -19.2080 N   0  0  0  0  0  0  0  0  0  0  0  0
  1  2  1  0
  2  3  2  0
  3  4  1  0
  4  5  1  0
  5  6  1  0
  6  7  1  0
  7  8  2  0
  7  9  1  0
  9 10  1  0
 10 11  1  0
 12 11  1  6
 12 13  1  0
 13 14  1  0
 14 15  1  0
 15 16  1  0
 16 17  1  0
 11 18  2  0
 18 19  1  0
 19 20  1  0
  4 21  2  0
 21 22  1  0
  2 22  1  0
  9 19  2  0
 12 17  1  0
M  END

$$$$
