A71EV2A-x1140_A_147_1_A71EV2A-x0526+A+147+1
     RDKit          3D

 15 16  0  0  0  0  0  0  0  0999 V2000
   12.7780   10.4030   24.3770 O   0  0  0  0  0  0  0  0  0  0  0  0
   12.1340   11.4300   24.2490 C   0  0  0  0  0  0  0  0  0  0  0  0
   10.6470   11.4250   24.3980 C   0  0  0  0  0  0  0  0  0  0  0  0
   10.0230   12.5760   24.9010 C   0  0  0  0  0  0  0  0  0  0  0  0
    8.6620   12.5840   25.1520 C   0  0  0  0  0  0  0  0  0  0  0  0
    7.9100   11.4460   24.9520 C   0  0  0  0  0  0  0  0  0  0  0  0
    8.5020   10.2980   24.4570 C   0  0  0  0  0  0  0  0  0  0  0  0
    9.8480   10.3110   24.1350 C   0  0  0  0  0  0  0  0  0  0  0  0
   10.4440    8.9940   23.1790 Cl  0  0  0  0  0  0  0  0  0  0  0  0
   12.8470   12.7500   23.9900 C   0  0  0  0  0  0  0  0  0  0  0  0
   14.0580   12.9540   24.7990 N   0  0  0  0  0  0  0  0  0  0  0  0
   13.8420   12.7530   26.2400 C   0  0  0  0  0  0  0  0  0  0  0  0
   15.1950   12.3440   26.7550 C   0  0  0  0  0  0  0  0  0  0  0  0
   15.6170   11.4390   25.7930 C   0  0  0  0  0  0  0  0  0  0  0  0
   15.1590   12.0370   24.4540 C   0  0  0  0  0  0  0  0  0  0  0  0
  9  8  1  0
  8  7  1  0
  7  6  2  0
  6  5  1  0
  5  4  2  0
  4  3  1  0
  8  3  2  0
  3  2  1  0
  2  1  2  0
 10  2  1  0
 11 10  1  0
 11 15  1  0
 15 14  1  0
 14 13  1  0
 13 12  1  0
 12 11  1  0
M  END

$$$$
