XX01ZVNS2B-x0472_B_301_XX01ZVNS2B-x1291+B+301+1
     RDKit          3D

 13 14  0  0  0  0  0  0  0  0999 V2000
   -3.2120    4.0840  -15.5220 N   0  0  0  0  0  0  0  0  0  0  0  0
   -2.9140    5.1510  -16.4760 C   0  0  0  0  0  0  0  0  0  0  0  0
   -3.8810    5.1320  -17.6720 C   0  0  2  0  0  0  0  0  0  0  0  0
   -3.3790    6.0850  -18.7430 C   0  0  0  0  0  0  0  0  0  0  0  0
   -5.2960    5.3240  -17.2730 N   0  0  0  0  0  0  0  0  0  0  0  0
   -6.3010    5.3850  -18.3570 C   0  0  0  0  0  0  0  0  0  0  0  0
   -7.6620    5.0540  -17.7980 C   0  0  0  0  0  0  0  0  0  0  0  0
   -8.7910    4.6320  -18.5560 C   0  0  0  0  0  0  0  0  0  0  0  0
   -9.8500    4.3240  -17.7760 C   0  0  0  0  0  0  0  0  0  0  0  0
   -9.5040    4.5400  -16.1140 S   0  0  0  0  0  0  0  0  0  0  0  0
   -7.9050    5.0710  -16.4610 C   0  0  0  0  0  0  0  0  0  0  0  0
   -6.9190    5.5180  -15.4210 C   0  0  0  0  0  0  0  0  0  0  0  0
   -5.7230    6.1440  -16.1290 C   0  0  0  0  0  0  0  0  0  0  0  0
  3  4  1  6
  3  2  1  0
  2  1  1  0
  5  3  1  0
  5 13  1  0
 13 12  1  0
 12 11  1  0
 11 10  1  0
 10  9  1  0
  9  8  2  0
  8  7  1  0
 11  7  2  0
  7  6  1  0
  6  5  1  0
M  END
