XX01ZVNS2B-x1838_B_301_XX01ZVNS2B-x1291+B+301+1
     RDKit          3D

 23 25  0  0  0  0  0  0  0  0999 V2000
   -3.7700    5.8470  -15.6910 C   0  0  0  0  0  0  0  0  0  0  0  0
   -4.9840    5.4380  -16.4710 C   0  0  0  0  0  0  0  0  0  0  0  0
   -4.9170    5.3430  -17.8730 C   0  0  0  0  0  0  0  0  0  0  0  0
   -6.0230    4.9800  -18.5960 C   0  0  0  0  0  0  0  0  0  0  0  0
   -5.9610    4.8750  -20.1010 C   0  0  0  0  0  0  0  0  0  0  0  0
   -4.8190    5.5180  -20.6610 O   0  0  0  0  0  0  0  0  0  0  0  0
   -7.2360    4.7020  -17.8930 C   0  0  0  0  0  0  0  0  0  0  0  0
   -8.4340    4.3100  -18.5430 C   0  0  0  0  0  0  0  0  0  0  0  0
   -9.5610    4.0550  -17.8260 C   0  0  0  0  0  0  0  0  0  0  0  0
   -9.5440    4.1720  -16.4210 C   0  0  0  0  0  0  0  0  0  0  0  0
   -8.4150    4.5460  -15.7410 C   0  0  0  0  0  0  0  0  0  0  0  0
   -8.4590    4.6930  -14.2350 C   0  0  0  0  0  0  0  0  0  0  0  0
   -8.1000    3.4550  -13.4400 C   0  0  0  0  0  0  0  0  0  0  0  0
   -7.8470    2.3960  -13.9810 O   0  0  0  0  0  0  0  0  0  0  0  0
   -8.0480    3.5620  -12.0960 N   0  0  0  0  0  0  0  0  0  0  0  0
   -8.0340    4.8150  -11.3200 C   0  0  0  0  0  0  0  0  0  0  0  0
   -8.4390    4.3790   -9.9380 C   0  0  0  0  0  0  0  0  0  0  0  0
   -7.8750    2.9630   -9.8030 C   0  0  1  0  0  0  0  0  0  0  0  0
   -8.5680    2.1260   -8.7300 C   0  0  0  0  0  0  0  0  0  0  0  0
   -9.8990    1.6440   -9.0900 N   0  0  0  0  0  0  0  0  0  0  0  0
   -8.0040    2.3840  -11.2140 C   0  0  0  0  0  0  0  0  0  0  0  0
   -7.2250    4.8210  -16.4730 C   0  0  0  0  0  0  0  0  0  0  0  0
   -6.0930    5.1860  -15.7910 N   0  0  0  0  0  0  0  0  0  0  0  0
  1  2  1  0
  2  3  2  0
  3  4  1  0
  4  5  1  0
  5  6  1  0
  4  7  2  0
  7  8  1  0
  8  9  2  0
  9 10  1  0
 10 11  2  0
 11 12  1  0
 12 13  1  0
 13 14  2  0
 13 15  1  0
 15 16  1  0
 16 17  1  0
 17 18  1  0
 18 19  1  1
 19 20  1  0
 18 21  1  0
 11 22  1  0
 22 23  2  0
  2 23  1  0
  7 22  1  0
 15 21  1  0
M  END
