A71EV2A-x0416_A_147_1_A71EV2A-x0526+A+147+1
     RDKit          3D

 15 16  0  0  0  0  0  0  0  0999 V2000
    7.3700   14.6390   25.0020 O   0  0  0  0  0  0  0  0  0  0  0  0
    7.2830   14.1490   26.1250 C   0  0  0  0  0  0  0  0  0  0  0  0
    6.8830   15.0190   27.3100 C   0  0  1  0  0  0  0  0  0  0  0  0
    6.1370   14.2700   28.2870 O   0  0  0  0  0  0  0  0  0  0  0  0
    6.3700   14.8590   29.5740 C   0  0  0  0  0  0  0  0  0  0  0  0
    7.4440   15.9130   29.4070 C   0  0  0  0  0  0  0  0  0  0  0  0
    8.0700   15.5650   28.0730 C   0  0  0  0  0  0  0  0  0  0  0  0
    7.5030   12.8440   26.4070 N   0  0  0  0  0  0  0  0  0  0  0  0
    7.8960   11.8260   25.5260 C   0  0  0  0  0  0  0  0  0  0  0  0
    8.7910   12.0550   24.4730 C   0  0  0  0  0  0  0  0  0  0  0  0
    9.1980   10.9690   23.7220 C   0  0  0  0  0  0  0  0  0  0  0  0
    7.4150   10.6040   25.8050 N   0  0  0  0  0  0  0  0  0  0  0  0
    7.8380    9.5790   25.0500 C   0  0  0  0  0  0  0  0  0  0  0  0
    8.7360    9.6960   24.0000 C   0  0  0  0  0  0  0  0  0  0  0  0
    9.1990    8.4970   23.2090 C   0  0  0  0  0  0  0  0  0  0  0  0
 15 14  1  0
 14 11  1  0
 11 10  2  0
 10  9  1  0
  9  8  1  0
  8  2  1  0
  2  1  2  0
  3  2  1  6
  3  7  1  0
  7  6  1  0
  6  5  1  0
  5  4  1  0
  4  3  1  0
 12  9  2  0
 13 12  1  0
 14 13  2  0
M  END
