XX01ZVNS2B-x0429_B_203_XX01ZVNS2B-x1291+B+301+1
     RDKit          3D

 16 18  0  0  0  0  0  0  0  0999 V2000
   -7.8520    4.6890  -16.1940 C   0  0  0  0  0  0  0  0  0  0  0  0
   -9.1580    4.3070  -16.2860 C   0  0  0  0  0  0  0  0  0  0  0  0
   -9.7700    4.1710  -17.5230 C   0  0  0  0  0  0  0  0  0  0  0  0
   -9.0820    4.4310  -18.6730 C   0  0  0  0  0  0  0  0  0  0  0  0
   -7.0980    4.9770  -17.3580 C   0  0  0  0  0  0  0  0  0  0  0  0
   -7.7340    4.8540  -18.6210 C   0  0  0  0  0  0  0  0  0  0  0  0
   -7.1000    5.1520  -19.8020 N   0  0  0  0  0  0  0  0  0  0  0  0
   -5.8490    5.5690  -19.7320 C   0  0  0  0  0  0  0  0  0  0  0  0
   -5.1280    5.7070  -18.5610 C   0  0  0  0  0  0  0  0  0  0  0  0
   -5.7350    5.4020  -17.3570 C   0  0  0  0  0  0  0  0  0  0  0  0
   -5.0250    5.4530  -16.1250 N   0  0  0  0  0  0  0  0  0  0  0  0
   -4.9360    6.7980  -15.5350 C   0  0  0  0  0  0  0  0  0  0  0  0
   -3.7390    4.7400  -16.1590 C   0  0  0  0  0  0  0  0  0  0  0  0
   -3.0640    4.6830  -14.7960 C   0  0  0  0  0  0  0  0  0  0  0  0
   -3.7730    5.5010  -13.7890 N   0  0  0  0  0  0  0  0  0  0  0  0
   -4.0460    6.8550  -14.3040 C   0  0  0  0  0  0  0  0  0  0  0  0
 16 12  1  0
 12 11  1  0
 13 11  1  0
 14 13  1  0
 15 14  1  0
 16 15  1  0
 11 10  1  0
 10  9  1  0
  9  8  2  0
  8  7  1  0
  7  6  2  0
  6  4  1  0
  4  3  2  0
  3  2  1  0
  2  1  2  0
  5  1  1  0
 10  5  2  0
  6  5  1  0
M  END
