A71EV2A-x1346_A_250_1_A71EV2A-x0526+A+147+1
     RDKit          3D

 29 31  0  0  0  0  0  0  0  0999 V2000
    8.6890   16.8200   21.0270 Cl  0  0  0  0  0  0  0  0  0  0  0  0
    8.6310   15.1490   21.6240 C   0  0  0  0  0  0  0  0  0  0  0  0
    7.2590   14.6010   21.9600 C   0  0  0  0  0  0  0  0  0  0  0  0
    7.0630   13.4040   21.8150 O   0  0  0  0  0  0  0  0  0  0  0  0
    6.3290   15.4290   22.4320 N   0  0  0  0  0  0  0  0  0  0  0  0
    5.0750   14.9650   23.0120 C   0  0  0  0  0  0  0  0  0  0  0  0
    5.1590   14.9580   24.5460 C   0  0  1  0  0  0  0  0  0  0  0  0
    3.8000   14.9120   25.2190 C   0  0  0  0  0  0  0  0  0  0  0  0
    3.3890   13.8070   25.9190 C   0  0  0  0  0  0  0  0  0  0  0  0
    2.1210   13.7570   26.5460 C   0  0  0  0  0  0  0  0  0  0  0  0
    1.6920   12.6450   27.3150 C   0  0  0  0  0  0  0  0  0  0  0  0
    0.4700   12.6500   27.9260 C   0  0  0  0  0  0  0  0  0  0  0  0
   -0.3790   13.7400   27.8020 C   0  0  0  0  0  0  0  0  0  0  0  0
   -0.0070   14.8300   27.0680 C   0  0  0  0  0  0  0  0  0  0  0  0
    1.2570   14.8730   26.4270 C   0  0  0  0  0  0  0  0  0  0  0  0
    1.7090   15.9960   25.6990 C   0  0  0  0  0  0  0  0  0  0  0  0
    2.9490   16.0090   25.1290 C   0  0  0  0  0  0  0  0  0  0  0  0
    6.0780   13.9250   25.0210 N   0  0  0  0  0  0  0  0  0  0  0  0
    6.8810   14.1040   26.0760 C   0  0  0  0  0  0  0  0  0  0  0  0
    7.0340   15.2000   26.6090 O   0  0  0  0  0  0  0  0  0  0  0  0
    7.5850   12.8830   26.6280 C   0  0  0  0  0  0  0  0  0  0  0  0
    7.6700   11.6540   25.7610 C   0  0  0  0  0  0  0  0  0  0  0  0
    6.9730   10.4340   25.9340 C   0  0  0  0  0  0  0  0  0  0  0  0
    5.8460   10.1400   26.8700 C   0  0  0  0  0  0  0  0  0  0  0  0
    8.5580   11.3740   24.7270 C   0  0  0  0  0  0  0  0  0  0  0  0
    9.5080   12.2920   24.0400 C   0  0  0  0  0  0  0  0  0  0  0  0
    8.3990   10.0890   24.3920 N   0  0  0  0  0  0  0  0  0  0  0  0
    7.4180    9.4920   25.1190 N   0  0  0  0  0  0  0  0  0  0  0  0
    9.1500    9.3030   23.4200 C   0  0  0  0  0  0  0  0  0  0  0  0
 24 23  1  0
 23 28  2  0
 28 27  1  0
 29 27  1  0
 27 25  1  0
 26 25  1  0
 25 22  2  0
 23 22  1  0
 22 21  1  0
 21 19  1  0
 20 19  2  0
 19 18  1  0
 18  7  1  0
  7  6  1  6
  6  5  1  0
  5  3  1  0
  4  3  2  0
  3  2  1  0
  2  1  1  0
  8  7  1  0
  8 17  2  0
 17 16  1  0
 16 15  2  0
 15 14  1  0
 14 13  2  0
 13 12  1  0
 12 11  2  0
 11 10  1  0
 15 10  1  0
 10  9  2  0
  9  8  1  0
M  END
