A71EV2A-x0437_A_250_1_A71EV2A-x0526+A+147+1
     RDKit          3D

 10 10  0  0  0  0  0  0  0  0999 V2000
    5.0120   12.9850   28.3300 C   0  0  0  0  0  0  0  0  0  0  0  0
    5.6130   11.9950   27.3780 C   0  0  0  0  0  0  0  0  0  0  0  0
    5.0990   10.7160   27.2320 C   0  0  0  0  0  0  0  0  0  0  0  0
    5.7200    9.8470   26.3600 C   0  0  0  0  0  0  0  0  0  0  0  0
    6.6770   12.4060   26.6890 N   0  0  0  0  0  0  0  0  0  0  0  0
    7.2970   11.5590   25.8210 N   0  0  0  0  0  0  0  0  0  0  0  0
    6.8440   10.3180   25.6750 C   0  0  0  0  0  0  0  0  0  0  0  0
    7.5580    9.5080   24.8450 N   0  0  0  0  0  0  0  0  0  0  0  0
    8.6780   10.0150   24.0370 C   0  0  0  0  0  0  0  0  0  0  0  0
    9.3110    8.9810   23.1540 C   0  0  0  0  0  0  0  0  0  0  0  0
 10  9  1  0
  9  8  1  0
  8  7  1  0
  7  4  2  0
  4  3  1  0
  3  2  2  0
  2  1  1  0
  5  2  1  0
  6  5  2  0
  7  6  1  0
M  END
