XX01ZVNS2B-x1743_B_301_XX01ZVNS2B-x1291+B+301+1
     RDKit          3D

 22 24  0  0  0  0  0  0  0  0999 V2000
   -3.3570    5.5130  -15.6270 C   0  0  0  0  0  0  0  0  0  0  0  0
   -4.6750    5.3190  -16.3150 C   0  0  0  0  0  0  0  0  0  0  0  0
   -4.7730    5.4340  -17.7230 C   0  0  0  0  0  0  0  0  0  0  0  0
   -5.9800    5.2570  -18.3500 C   0  0  0  0  0  0  0  0  0  0  0  0
   -7.1210    4.9620  -17.5440 C   0  0  0  0  0  0  0  0  0  0  0  0
   -8.4180    4.7580  -18.0800 C   0  0  0  0  0  0  0  0  0  0  0  0
   -9.4710    4.4720  -17.2650 C   0  0  0  0  0  0  0  0  0  0  0  0
   -9.2990    4.3770  -15.8760 C   0  0  0  0  0  0  0  0  0  0  0  0
   -8.0640    4.5800  -15.3090 C   0  0  0  0  0  0  0  0  0  0  0  0
   -6.9350    4.8660  -16.1380 C   0  0  0  0  0  0  0  0  0  0  0  0
   -5.7180    5.0460  -15.5520 N   0  0  0  0  0  0  0  0  0  0  0  0
   -7.8180    4.4810  -13.9350 N   0  0  0  0  0  0  0  0  0  0  0  0
   -7.7830    3.3190  -13.2470 C   0  0  0  0  0  0  0  0  0  0  0  0
   -7.8890    2.2190  -13.7820 O   0  0  0  0  0  0  0  0  0  0  0  0
   -7.6220    3.4640  -11.7410 C   0  0  0  0  0  0  0  0  0  0  0  0
   -6.4830    2.5640  -11.2440 C   0  0  0  0  0  0  0  0  0  0  0  0
   -6.4400    2.4800   -9.7330 C   0  0  0  0  0  0  0  0  0  0  0  0
   -7.7400    2.0270   -9.2280 N   0  0  0  0  0  0  0  0  0  0  0  0
   -8.7870    3.0010   -9.5450 C   0  0  0  0  0  0  0  0  0  0  0  0
   -8.9450    3.1240  -11.0460 C   0  0  0  0  0  0  0  0  0  0  0  0
   -6.1270    5.3760  -19.8500 C   0  0  0  0  0  0  0  0  0  0  0  0
   -4.9160    5.1660  -20.5670 O   0  0  0  0  0  0  0  0  0  0  0  0
  1  2  1  0
  2  3  2  0
  3  4  1  0
  4  5  2  0
  5  6  1  0
  6  7  2  0
  7  8  1  0
  8  9  2  0
  9 10  1  0
 10 11  2  0
  9 12  1  0
 12 13  1  0
 13 14  2  0
 13 15  1  0
 15 16  1  0
 16 17  1  0
 17 18  1  0
 18 19  1  0
 19 20  1  0
  4 21  1  0
 21 22  1  0
  2 11  1  0
 15 20  1  0
  5 10  1  0
M  END

$$$$
