A71EV2A-x0341_A_147_1_A71EV2A-x0395+A+148+1
     RDKit          3D

 13 14  0  0  0  0  0  0  0  0999 V2000
   16.2540   -4.3330   21.7350 O   0  0  0  0  0  0  0  0  0  0  0  0
   17.0910   -3.8030   20.9530 C   0  0  0  0  0  0  0  0  0  0  0  0
   18.3340   -3.0510   21.2580 C   0  0  0  0  0  0  0  0  0  0  0  0
   18.8360   -2.7120   19.9040 C   0  0  0  0  0  0  0  0  0  0  0  0
   20.0930   -1.9390   19.6680 C   0  0  0  0  0  0  0  0  0  0  0  0
   16.9610   -3.8500   19.5340 N   0  0  0  0  0  0  0  0  0  0  0  0
   18.0510   -3.1700   18.9820 N   0  0  0  0  0  0  0  0  0  0  0  0
   15.8990   -4.4810   18.8280 C   0  0  0  0  0  0  0  0  0  0  0  0
   14.9390   -3.7240   18.1670 C   0  0  0  0  0  0  0  0  0  0  0  0
   13.8920   -4.2890   17.4750 C   0  0  0  0  0  0  0  0  0  0  0  0
   13.7830   -5.6650   17.4290 C   0  0  0  0  0  0  0  0  0  0  0  0
   14.7310   -6.4270   18.0840 C   0  0  0  0  0  0  0  0  0  0  0  0
   15.7850   -5.8500   18.7800 C   0  0  0  0  0  0  0  0  0  0  0  0
  5  4  1  0
  4  7  2  0
  7  6  1  0
  6  2  1  0
  2  1  2  0
  3  2  1  0
  4  3  1  0
  8  6  1  0
  8 13  2  0
 13 12  1  0
 12 11  2  0
 11 10  1  0
 10  9  2  0
  9  8  1  0
M  END

$$$$
