XX01ZVNS2B-x1291_B_301_XX01ZVNS2B-x1291+B+301+1
     RDKit          3D

 26 27  0  0  0  0  0  0  0  0999 V2000
   -9.4710    1.6670   -7.5760 C   0  0  0  0  0  0  0  0  0  0  0  0
   -8.8440    2.3050   -8.7350 N   0  0  0  0  0  0  0  0  0  0  0  0
   -7.4210    1.9840   -8.8060 C   0  0  0  0  0  0  0  0  0  0  0  0
   -9.0550    3.7540   -8.7120 C   0  0  0  0  0  0  0  0  0  0  0  0
   -8.6270    4.4160   -9.9850 C   0  0  0  0  0  0  0  0  0  0  0  0
   -8.5670    3.8140  -11.1390 N   0  0  0  0  0  0  0  0  0  0  0  0
   -8.3600    4.7170  -12.1760 C   0  0  0  0  0  0  0  0  0  0  0  0
   -8.2890    4.2010  -13.5780 C   0  0  0  0  0  0  0  0  0  0  0  0
   -8.6460    5.1970  -14.5660 N   0  0  0  0  0  0  0  0  0  0  0  0
   -8.5500    4.9680  -15.9330 C   0  0  0  0  0  0  0  0  0  0  0  0
   -9.6100    4.3650  -16.5970 C   0  0  0  0  0  0  0  0  0  0  0  0
   -9.5150    4.1560  -17.9570 C   0  0  0  0  0  0  0  0  0  0  0  0
  -10.8600    3.4140  -18.7760 Cl  0  0  0  0  0  0  0  0  0  0  0  0
   -8.3920    4.5110  -18.6660 C   0  0  0  0  0  0  0  0  0  0  0  0
   -7.3210    5.1170  -18.0170 C   0  0  0  0  0  0  0  0  0  0  0  0
   -6.0560    5.5260  -18.7260 C   0  0  0  0  0  0  0  0  0  0  0  0
   -5.1390    6.0420  -18.0900 O   0  0  0  0  0  0  0  0  0  0  0  0
   -5.9660    5.2940  -20.0430 N   0  0  0  0  0  0  0  0  0  0  0  0
   -4.8380    5.6900  -20.9470 C   0  0  0  0  0  0  0  0  0  0  0  0
   -5.2580    5.4360  -22.3970 C   0  0  0  0  0  0  0  0  0  0  0  0
   -3.5910    4.8690  -20.6130 C   0  0  0  0  0  0  0  0  0  0  0  0
   -4.5110    7.1790  -20.8150 C   0  0  0  0  0  0  0  0  0  0  0  0
   -5.6120    8.0150  -21.1240 O   0  0  0  0  0  0  0  0  0  0  0  0
   -7.4060    5.3370  -16.6420 C   0  0  0  0  0  0  0  0  0  0  0  0
   -8.2120    6.0010  -11.7690 C   0  0  0  0  0  0  0  0  0  0  0  0
   -8.2160    6.0930  -10.0530 S   0  0  0  0  0  0  0  0  0  0  0  0
  1  2  1  0
  2  3  1  0
  2  4  1  0
  4  5  1  0
  5  6  2  0
  6  7  1  0
  7  8  1  0
  8  9  1  0
  9 10  1  0
 10 11  2  0
 11 12  1  0
 12 13  1  0
 12 14  2  0
 14 15  1  0
 15 16  1  0
 16 17  2  0
 16 18  1  0
 18 19  1  0
 19 20  1  0
 19 21  1  0
 19 22  1  0
 22 23  1  0
 15 24  2  0
  7 25  2  0
 25 26  1  0
  5 26  1  0
 10 24  1  0
M  END

$$$$
