XX01ZVNS2B-x1674_B_301_XX01ZVNS2B-x1291+B+301+1
     RDKit          3D

 14 15  0  0  0  0  0  0  0  0999 V2000
   -2.8060    5.7110  -17.4980 C   0  0  0  0  0  0  0  0  0  0  0  0
   -4.2520    5.4410  -17.7860 C   0  0  0  0  0  0  0  0  0  0  0  0
   -4.7030    5.3320  -19.1160 C   0  0  0  0  0  0  0  0  0  0  0  0
   -6.0350    5.0980  -19.3730 C   0  0  0  0  0  0  0  0  0  0  0  0
   -6.9350    4.9640  -18.2730 C   0  0  0  0  0  0  0  0  0  0  0  0
   -8.3090    4.6920  -18.4220 C   0  0  0  0  0  0  0  0  0  0  0  0
   -9.1190    4.5640  -17.3300 C   0  0  0  0  0  0  0  0  0  0  0  0
   -8.5980    4.7040  -16.0540 C   0  0  0  0  0  0  0  0  0  0  0  0
   -7.2600    4.9540  -15.8530 C   0  0  0  0  0  0  0  0  0  0  0  0
   -6.3970    5.0910  -16.9700 C   0  0  0  0  0  0  0  0  0  0  0  0
   -5.0640    5.3230  -16.7470 N   0  0  0  0  0  0  0  0  0  0  0  0
   -6.6440    5.1030  -14.2360 Cl  0  0  0  0  0  0  0  0  0  0  0  0
   -9.6600    4.5560  -14.6910 Cl  0  0  0  0  0  0  0  0  0  0  0  0
   -6.5040    4.9980  -20.6630 N   0  0  0  0  0  0  0  0  0  0  0  0
  1  2  1  0
  2  3  2  0
  3  4  1  0
  4  5  2  0
  5  6  1  0
  6  7  2  0
  7  8  1  0
  8  9  2  0
  9 10  1  0
 10 11  2  0
  9 12  1  0
  8 13  1  0
  4 14  1  0
  2 11  1  0
  5 10  1  0
M  END
