XX01ZVNS2B-x2126_B_203_XX01ZVNS2B-x1291+B+301+1
     RDKit          3D

 25 26  0  0  0  0  0  0  0  0999 V2000
   -8.3110    7.1130   -9.7550 C   0  0  0  0  0  0  0  0  0  0  0  0
   -8.3310    5.8300  -10.4400 N   0  0  0  0  0  0  0  0  0  0  0  0
   -8.2190    5.7220  -11.8550 O   0  0  0  0  0  0  0  0  0  0  0  0
   -8.2820    4.3800  -12.1530 C   0  0  0  0  0  0  0  0  0  0  0  0
   -8.1790    3.9620  -13.5600 C   0  0  0  0  0  0  0  0  0  0  0  0
   -8.2180    2.7720  -13.8630 O   0  0  0  0  0  0  0  0  0  0  0  0
   -8.0250    4.9830  -14.4420 N   0  0  0  0  0  0  0  0  0  0  0  0
   -8.0640    4.9080  -15.8490 C   0  0  0  0  0  0  0  0  0  0  0  0
   -9.1730    4.3760  -16.4930 C   0  0  0  0  0  0  0  0  0  0  0  0
   -9.1740    4.3030  -17.8730 C   0  0  0  0  0  0  0  0  0  0  0  0
  -10.5880    3.6820  -18.6790 Cl  0  0  0  0  0  0  0  0  0  0  0  0
   -8.0730    4.6620  -18.6120 C   0  0  0  0  0  0  0  0  0  0  0  0
   -6.9430    5.1520  -17.9730 C   0  0  0  0  0  0  0  0  0  0  0  0
   -5.7110    5.5530  -18.7350 C   0  0  0  0  0  0  0  0  0  0  0  0
   -4.6060    5.4880  -18.1990 O   0  0  0  0  0  0  0  0  0  0  0  0
   -5.8860    5.9990  -19.9830 N   0  0  0  0  0  0  0  0  0  0  0  0
   -4.8160    6.3650  -20.9600 C   0  0  0  0  0  0  0  0  0  0  0  0
   -5.4410    7.1440  -22.1200 C   0  0  0  0  0  0  0  0  0  0  0  0
   -3.7240    7.2230  -20.3150 C   0  0  0  0  0  0  0  0  0  0  0  0
   -4.2030    5.0670  -21.4980 C   0  0  0  0  0  0  0  0  0  0  0  0
   -5.1250    4.2220  -22.1720 O   0  0  0  0  0  0  0  0  0  0  0  0
   -6.9420    5.2720  -16.5880 C   0  0  0  0  0  0  0  0  0  0  0  0
   -8.4200    3.6780  -11.0020 C   0  0  0  0  0  0  0  0  0  0  0  0
   -8.4360    4.5840   -9.9360 C   0  0  0  0  0  0  0  0  0  0  0  0
   -8.5510    4.3090   -8.6930 O   0  0  0  0  0  0  0  0  0  0  0  0
  1  2  1  0
  2  3  1  0
  3  4  1  0
  4  5  1  0
  5  6  2  0
  5  7  1  0
  7  8  1  0
  8  9  2  0
  9 10  1  0
 10 11  1  0
 10 12  2  0
 12 13  1  0
 13 14  1  0
 14 15  2  0
 14 16  1  0
 16 17  1  0
 17 18  1  0
 17 19  1  0
 17 20  1  0
 20 21  1  0
 13 22  2  0
  4 23  2  0
 23 24  1  0
 24 25  2  0
  2 24  1  0
  8 22  1  0
M  END
