A71EV2A-x1292_A_151_1_A71EV2A-x0526+A+147+1
     RDKit          3D

 13 14  0  0  0  0  0  0  0  0999 V2000
    5.7510   10.6570   26.9680 O   0  0  0  0  0  0  0  0  0  0  0  0
    6.1440   11.6210   26.3150 C   0  0  0  0  0  0  0  0  0  0  0  0
    5.5970   12.8410   26.4530 N   0  0  0  0  0  0  0  0  0  0  0  0
    4.5910   13.1310   27.4740 C   0  0  0  0  0  0  0  0  0  0  0  0
    4.2880   14.5470   27.7950 C   0  0  0  0  0  0  0  0  0  0  0  0
    5.0390   13.7060   28.7660 C   0  0  0  0  0  0  0  0  0  0  0  0
    7.2480   11.4610   25.3080 C   0  0  0  0  0  0  0  0  0  0  0  0
    7.5540   10.1850   24.7910 C   0  0  0  0  0  0  0  0  0  0  0  0
    6.8540    9.0840   25.1600 O   0  0  0  0  0  0  0  0  0  0  0  0
    7.9780   12.5580   24.8420 C   0  0  0  0  0  0  0  0  0  0  0  0
    8.9560   12.3990   23.8760 C   0  0  0  0  0  0  0  0  0  0  0  0
    9.2530   11.1480   23.3820 C   0  0  0  0  0  0  0  0  0  0  0  0
    8.5670   10.0390   23.8420 C   0  0  0  0  0  0  0  0  0  0  0  0
  9  8  1  0
  8 13  2  0
 13 12  1  0
 12 11  2  0
 11 10  1  0
 10  7  2  0
  8  7  1  0
  7  2  1  0
  2  1  2  0
  3  2  1  0
  4  3  1  0
  4  6  1  0
  6  5  1  0
  5  4  1  0
M  END
