XX01ZVNS2B-x0990_B_301_XX01ZVNS2B-x1291+B+301+1
     RDKit          3D

 11 11  0  0  0  0  0  0  0  0999 V2000
   -7.1040    6.4480  -16.1650 O   0  0  0  0  0  0  0  0  0  0  0  0
   -7.4370    5.7740  -17.1230 C   0  0  0  0  0  0  0  0  0  0  0  0
   -8.5410    4.9750  -17.0650 N   0  0  0  0  0  0  0  0  0  0  0  0
   -9.4100    4.5380  -18.1590 C   0  0  0  0  0  0  0  0  0  0  0  0
   -8.9810    4.5520  -15.7400 C   0  0  0  0  0  0  0  0  0  0  0  0
   -6.7300    5.8110  -18.2840 N   0  0  0  0  0  0  0  0  0  0  0  0
   -6.6840    7.0770  -19.0300 C   0  0  0  0  0  0  0  0  0  0  0  0
   -5.2820    7.3950  -19.5120 C   0  0  0  0  0  0  0  0  0  0  0  0
   -4.7480    6.2620  -20.2790 N   0  0  0  0  0  0  0  0  0  0  0  0
   -4.6840    5.0500  -19.4470 C   0  0  0  0  0  0  0  0  0  0  0  0
   -6.0720    4.6800  -18.9540 C   0  0  0  0  0  0  0  0  0  0  0  0
  5  3  1  0
  4  3  1  0
  3  2  1  0
  2  1  2  0
  6  2  1  0
  6 11  1  0
 11 10  1  0
 10  9  1  0
  9  8  1  0
  8  7  1  0
  7  6  1  0
M  END
