XX01ZVNS2B-x1688_B_301_XX01ZVNS2B-x1291+B+301+1
     RDKit          3D

 17 19  0  0  0  0  0  0  0  0999 V2000
   -7.0660    7.6440  -10.8500 C   0  0  0  0  0  0  0  0  0  0  0  0
   -7.4950    6.5920  -11.8090 C   0  0  0  0  0  0  0  0  0  0  0  0
   -7.5270    6.7190  -13.1330 N   0  0  0  0  0  0  0  0  0  0  0  0
   -7.9790    5.5040  -13.6360 C   0  0  0  0  0  0  0  0  0  0  0  0
   -8.2280    4.6740  -12.5770 C   0  0  0  0  0  0  0  0  0  0  0  0
   -7.9180    5.3670  -11.4450 N   0  0  0  0  0  0  0  0  0  0  0  0
   -8.1740    5.2280  -15.0740 C   0  0  0  0  0  0  0  0  0  0  0  0
   -9.4030    4.7530  -15.4810 C   0  0  0  0  0  0  0  0  0  0  0  0
   -9.6540    4.4550  -16.8300 C   0  0  0  0  0  0  0  0  0  0  0  0
   -8.6980    4.6180  -17.7970 C   0  0  0  0  0  0  0  0  0  0  0  0
   -7.4080    5.1040  -17.4160 C   0  0  0  0  0  0  0  0  0  0  0  0
   -6.4490    5.2610  -18.3860 N   0  0  0  0  0  0  0  0  0  0  0  0
   -5.2570    5.7080  -18.0190 C   0  0  0  0  0  0  0  0  0  0  0  0
   -4.9020    6.0310  -16.6960 C   0  0  0  0  0  0  0  0  0  0  0  0
   -5.8400    5.8810  -15.7170 C   0  0  0  0  0  0  0  0  0  0  0  0
   -7.1360    5.4060  -16.0500 C   0  0  0  0  0  0  0  0  0  0  0  0
   -9.0030    4.2850  -19.2280 C   0  0  0  0  0  0  0  0  0  0  0  0
  1  2  1  0
  2  3  2  0
  3  4  1  0
  4  5  2  0
  5  6  1  0
  4  7  1  0
  7  8  2  0
  8  9  1  0
  9 10  2  0
 10 11  1  0
 11 12  2  0
 12 13  1  0
 13 14  2  0
 14 15  1  0
 15 16  2  0
 10 17  1  0
  2  6  1  0
  7 16  1  0
 11 16  1  0
M  END
