A71EV2A-x0853_A_147_1_A71EV2A-x0526+A+147+1
     RDKit          3D

 15 17  0  0  0  0  0  0  0  0999 V2000
   -0.7860   12.0170   21.8170 O   0  0  0  0  0  0  0  0  0  0  0  0
   -0.0660   12.8520   21.2850 C   0  0  0  0  0  0  0  0  0  0  0  0
    0.8070   13.5930   21.9740 N   0  0  0  0  0  0  0  0  0  0  0  0
    0.5580   14.9970   22.2870 C   0  0  0  0  0  0  0  0  0  0  0  0
    0.0600   15.3390   23.6430 C   0  0  0  0  0  0  0  0  0  0  0  0
   -0.8400   15.4580   22.4650 C   0  0  0  0  0  0  0  0  0  0  0  0
   -0.1430   13.1090   19.8170 C   0  0  0  0  0  0  0  0  0  0  0  0
    0.4910   12.2460   18.9270 C   0  0  0  0  0  0  0  0  0  0  0  0
    0.3960   12.5140   17.5840 C   0  0  0  0  0  0  0  0  0  0  0  0
    0.8510   11.7630   16.5240 O   0  0  0  0  0  0  0  0  0  0  0  0
    0.2080   12.3330   15.3840 C   0  0  0  0  0  0  0  0  0  0  0  0
   -0.2120   13.6470   15.7470 O   0  0  0  0  0  0  0  0  0  0  0  0
   -0.2820   13.6120   17.1180 C   0  0  0  0  0  0  0  0  0  0  0  0
   -0.9210   14.4820   17.9770 C   0  0  0  0  0  0  0  0  0  0  0  0
   -0.8480   14.2190   19.3340 C   0  0  0  0  0  0  0  0  0  0  0  0
  2  1  2  0
  3  2  1  0
  4  3  1  0
  4  6  1  0
  6  5  1  0
  5  4  1  0
  7  2  1  0
  7 15  2  0
 15 14  1  0
 14 13  2  0
 13 12  1  0
 12 11  1  0
 11 10  1  0
 10  9  1  0
 13  9  1  0
  9  8  2  0
  8  7  1  0
M  END
