XX01ZVNS2B-x0101_B_301_XX01ZVNS2B-x1291+B+301+1
     RDKit          3D

 15 15  0  0  0  0  0  0  0  0999 V2000
  -10.7680    3.7320  -18.5150 Cl  0  0  0  0  0  0  0  0  0  0  0  0
   -9.2890    4.1570  -17.6960 C   0  0  0  0  0  0  0  0  0  0  0  0
   -9.2610    4.1610  -16.3180 C   0  0  0  0  0  0  0  0  0  0  0  0
   -8.0980    4.5510  -15.6750 C   0  0  0  0  0  0  0  0  0  0  0  0
   -6.9830    4.9180  -16.4090 C   0  0  0  0  0  0  0  0  0  0  0  0
   -8.1880    4.5210  -18.4480 C   0  0  0  0  0  0  0  0  0  0  0  0
   -7.0170    4.9040  -17.8000 C   0  0  0  0  0  0  0  0  0  0  0  0
   -5.7650    5.2590  -18.5420 C   0  0  0  0  0  0  0  0  0  0  0  0
   -4.7590    5.6210  -17.9390 O   0  0  0  0  0  0  0  0  0  0  0  0
   -5.7920    5.1590  -19.8860 N   0  0  0  0  0  0  0  0  0  0  0  0
   -4.6580    5.4610  -20.7920 C   0  0  0  0  0  0  0  0  0  0  0  0
   -4.4360    6.9760  -20.8340 C   0  0  0  0  0  0  0  0  0  0  0  0
   -3.3830    4.7800  -20.3100 C   0  0  0  0  0  0  0  0  0  0  0  0
   -4.9090    4.8630  -22.1680 C   0  0  0  0  0  0  0  0  0  0  0  0
   -5.7740    5.6370  -22.9820 O   0  0  0  0  0  0  0  0  0  0  0  0
 12 11  1  0
 13 11  1  0
 14 11  1  0
 15 14  1  0
 11 10  1  0
 10  8  1  0
  9  8  2  0
  8  7  1  0
  7  5  1  0
  5  4  2  0
  4  3  1  0
  3  2  2  0
  2  1  1  0
  6  2  1  0
  7  6  2  0
M  END

$$$$
