XX01ZVNS2B-x0904_B_301_XX01ZVNS2B-x1291+B+301+1
     RDKit          3D

 14 14  0  0  0  0  0  0  0  0999 V2000
   -9.1710    4.8660  -15.2390 F   0  0  0  0  0  0  0  0  0  0  0  0
   -8.8180    4.8450  -16.5520 C   0  0  0  0  0  0  0  0  0  0  0  0
   -9.7350    4.3940  -17.4550 C   0  0  0  0  0  0  0  0  0  0  0  0
   -9.3310    4.2230  -18.7590 C   0  0  0  0  0  0  0  0  0  0  0  0
   -8.0270    4.5050  -19.1340 C   0  0  0  0  0  0  0  0  0  0  0  0
   -7.5280    5.1940  -16.8840 C   0  0  0  0  0  0  0  0  0  0  0  0
   -7.1380    5.0090  -18.2000 C   0  0  0  0  0  0  0  0  0  0  0  0
   -5.8340    5.3040  -18.5310 O   0  0  0  0  0  0  0  0  0  0  0  0
   -5.4480    5.4110  -19.9090 C   0  0  0  0  0  0  0  0  0  0  0  0
   -4.0560    4.8360  -20.1060 C   0  0  0  0  0  0  0  0  0  0  0  0
   -3.4850    4.2950  -19.1720 O   0  0  0  0  0  0  0  0  0  0  0  0
   -3.4690    4.9720  -21.3090 N   0  0  0  0  0  0  0  0  0  0  0  0
   -2.0790    5.3880  -21.4180 C   0  0  0  0  0  0  0  0  0  0  0  0
   -4.1640    4.7630  -22.5820 C   0  0  0  0  0  0  0  0  0  0  0  0
 14 12  1  0
 13 12  1  0
 12 10  1  0
 11 10  2  0
 10  9  1  0
  9  8  1  0
  8  7  1  0
  7  5  1  0
  5  4  2  0
  4  3  1  0
  3  2  2  0
  2  1  1  0
  6  2  1  0
  7  6  2  0
M  END

$$$$
