A71EV2A-x0375_A_301_1_A71EV2A-x0526+A+147+1
     RDKit          3D

 12 12  0  0  0  0  0  0  0  0999 V2000
   11.5480   13.0530   25.3180 S   0  0  0  0  0  0  0  0  0  0  0  0
   11.0600   13.5750   23.7890 C   0  0  0  0  0  0  0  0  0  0  0  0
   11.8710   14.2060   22.9680 N   0  0  0  0  0  0  0  0  0  0  0  0
    9.8090   13.3430   23.3590 N   0  0  0  0  0  0  0  0  0  0  0  0
    8.7710   12.6890   24.0620 C   0  0  0  0  0  0  0  0  0  0  0  0
    8.8730   11.2990   24.2350 C   0  0  0  0  0  0  0  0  0  0  0  0
    9.9540   10.7250   23.6270 O   0  0  0  0  0  0  0  0  0  0  0  0
    9.8150    9.3910   23.1420 C   0  0  0  0  0  0  0  0  0  0  0  0
    7.6820   13.3670   24.6080 C   0  0  0  0  0  0  0  0  0  0  0  0
    6.7210   12.6630   25.3160 C   0  0  0  0  0  0  0  0  0  0  0  0
    6.8340   11.2960   25.4830 C   0  0  0  0  0  0  0  0  0  0  0  0
    7.9150   10.6070   24.9580 C   0  0  0  0  0  0  0  0  0  0  0  0
  8  7  1  0
  7  6  1  0
  6 12  2  0
 12 11  1  0
 11 10  2  0
 10  9  1  0
  9  5  2  0
  6  5  1  0
  5  4  1  0
  4  2  1  0
  2  1  2  0
  3  2  1  0
M  END
