XX01ZVNS2B-x1837_B_301_XX01ZVNS2B-x1291+B+301+1
     RDKit          3D

 22 24  0  0  0  0  0  0  0  0999 V2000
   -3.9290    5.7010  -15.6660 C   0  0  0  0  0  0  0  0  0  0  0  0
   -5.1410    5.3020  -16.4540 C   0  0  0  0  0  0  0  0  0  0  0  0
   -5.0670    5.2390  -17.8590 C   0  0  0  0  0  0  0  0  0  0  0  0
   -6.1650    4.8780  -18.5920 C   0  0  0  0  0  0  0  0  0  0  0  0
   -6.0930    4.7970  -20.0960 C   0  0  0  0  0  0  0  0  0  0  0  0
   -4.7820    5.0220  -20.6080 O   0  0  0  0  0  0  0  0  0  0  0  0
   -7.3810    4.5790  -17.9010 C   0  0  0  0  0  0  0  0  0  0  0  0
   -8.5710    4.1900  -18.5690 C   0  0  0  0  0  0  0  0  0  0  0  0
   -9.7020    3.9120  -17.8640 C   0  0  0  0  0  0  0  0  0  0  0  0
   -9.6950    3.9980  -16.4590 C   0  0  0  0  0  0  0  0  0  0  0  0
   -8.5740    4.3630  -15.7610 C   0  0  0  0  0  0  0  0  0  0  0  0
   -8.6380    4.4680  -14.2510 C   0  0  0  0  0  0  0  0  0  0  0  0
   -8.1740    3.2380  -13.4940 C   0  0  0  0  0  0  0  0  0  0  0  0
   -7.8110    2.2270  -14.0670 O   0  0  0  0  0  0  0  0  0  0  0  0
   -8.1660    3.2940  -12.1470 N   0  0  0  0  0  0  0  0  0  0  0  0
   -8.6020    4.4350  -11.3260 C   0  0  0  0  0  0  0  0  0  0  0  0
   -8.9710    3.7950  -10.0150 C   0  0  0  0  0  0  0  0  0  0  0  0
   -7.9510    2.6650   -9.8710 C   0  0  1  0  0  0  0  0  0  0  0  0
   -8.4290    1.6060   -8.9810 N   0  0  0  0  0  0  0  0  0  0  0  0
   -7.6790    2.1910  -11.3020 C   0  0  0  0  0  0  0  0  0  0  0  0
   -7.3800    4.6720  -16.4780 C   0  0  0  0  0  0  0  0  0  0  0  0
   -6.2510    5.0300  -15.7820 N   0  0  0  0  0  0  0  0  0  0  0  0
  1  2  1  0
  2  3  2  0
  3  4  1  0
  4  5  1  0
  5  6  1  0
  4  7  2  0
  7  8  1  0
  8  9  2  0
  9 10  1  0
 10 11  2  0
 11 12  1  0
 12 13  1  0
 13 14  2  0
 13 15  1  0
 15 16  1  0
 16 17  1  0
 17 18  1  0
 18 19  1  1
 18 20  1  0
 11 21  1  0
 21 22  2  0
  2 22  1  0
  7 21  1  0
 15 20  1  0
M  END
