A71EV2A-x0525_A_246_1_A71EV2A-x0540+A+147+1
     RDKit          3D

 11 11  0  0  0  0  0  0  0  0999 V2000
    8.0470   22.2640   26.3010 O   0  0  0  0  0  0  0  0  0  0  0  0
    9.2030   22.4640   25.8780 C   0  0  0  0  0  0  0  0  0  0  0  0
    9.6910   23.6990   25.3200 C   0  0  0  0  0  0  0  0  0  0  0  0
   10.9330   23.7650   24.7740 C   0  0  0  0  0  0  0  0  0  0  0  0
   10.0860   21.4260   25.8650 N   0  0  0  0  0  0  0  0  0  0  0  0
   11.3270   21.4780   25.3080 C   0  0  0  0  0  0  0  0  0  0  0  0
   11.7720   22.5900   24.7270 C   0  0  0  0  0  0  0  0  0  0  0  0
   12.9270   22.6020   23.9690 O   0  0  0  0  0  0  0  0  0  0  0  0
   14.1410   22.6660   24.6190 C   0  0  0  0  0  0  0  0  0  0  0  0
   14.0590   23.6740   25.4960 F   0  0  0  0  0  0  0  0  0  0  0  0
   14.3780   21.4990   25.2990 F   0  0  0  0  0  0  0  0  0  0  0  0
 10  9  1  0
 11  9  1  0
  9  8  1  0
  8  7  1  0
  7  4  1  0
  4  3  2  0
  3  2  1  0
  2  1  2  0
  5  2  1  0
  6  5  1  0
  7  6  2  0
M  END

$$$$
