A71EV2A-x0863_A_147_1_A71EV2A-x0528+A+201+1
     RDKit          3D

 14 14  0  0  0  0  0  0  0  0999 V2000
   28.0210   20.0240   19.0520 O   0  0  0  0  0  0  0  0  0  0  0  0
   28.4340   20.7130   19.9580 C   0  0  0  0  0  0  0  0  0  0  0  0
   27.6360   21.0690   20.9850 N   0  0  0  0  0  0  0  0  0  0  0  0
   27.9690   21.8430   22.1830 C   0  0  0  0  0  0  0  0  0  0  0  0
   26.9540   21.6960   23.2930 C   0  0  0  0  0  0  0  0  0  0  0  0
   26.2140   20.7070   20.8250 C   0  0  0  0  0  0  0  0  0  0  0  0
   25.9040   19.3250   21.2840 C   0  0  0  0  0  0  0  0  0  0  0  0
   29.8520   21.1890   19.8920 C   0  0  0  0  0  0  0  0  0  0  0  0
   30.2410   22.5060   20.1360 C   0  0  0  0  0  0  0  0  0  0  0  0
   31.5300   22.9290   19.8540 C   0  0  0  0  0  0  0  0  0  0  0  0
   32.4650   22.0530   19.3000 C   0  0  0  0  0  0  0  0  0  0  0  0
   33.7550   22.4780   19.0170 N   0  0  0  0  0  0  0  0  0  0  0  0
   32.0710   20.7340   19.0450 C   0  0  0  0  0  0  0  0  0  0  0  0
   30.7910   20.3070   19.3530 C   0  0  0  0  0  0  0  0  0  0  0  0
  7  6  1  0
  6  3  1  0
  4  3  1  0
  5  4  1  0
  3  2  1  0
  2  1  2  0
  8  2  1  0
  8 14  2  0
 14 13  1  0
 13 11  2  0
 12 11  1  0
 11 10  1  0
 10  9  2  0
  9  8  1  0
M  END

$$$$
