A71EV2A-x1255_B_201_1_A71EV2A-x0526+A+147+1
     RDKit          3D

 12 12  0  0  0  0  0  0  0  0999 V2000
    9.5560    9.5410   23.5830 Br  0  0  0  0  0  0  0  0  0  0  0  0
    8.3110   10.4610   24.6610 C   0  0  0  0  0  0  0  0  0  0  0  0
    8.3260   11.8160   24.7040 C   0  0  0  0  0  0  0  0  0  0  0  0
    7.3900   12.5330   25.5260 C   0  0  0  0  0  0  0  0  0  0  0  0
    7.3300   13.7590   25.6180 O   0  0  0  0  0  0  0  0  0  0  0  0
    7.3780    9.6990   25.4070 C   0  0  0  0  0  0  0  0  0  0  0  0
    6.5040   10.3730   26.1740 C   0  0  0  0  0  0  0  0  0  0  0  0
    6.4960   11.7410   26.2530 N   0  0  0  0  0  0  0  0  0  0  0  0
    5.5460   12.4080   27.1590 C   0  0  0  0  0  0  0  0  0  0  0  0
    6.1810   12.7780   28.4810 C   0  0  0  0  0  0  0  0  0  0  0  0
    5.5820   12.0350   29.5330 O   0  0  0  0  0  0  0  0  0  0  0  0
    5.7830   10.6250   29.4790 C   0  0  0  0  0  0  0  0  0  0  0  0
  5  4  2  0
  4  8  1  0
  9  8  1  0
 10  9  1  0
 11 10  1  0
 12 11  1  0
  8  7  1  0
  7  6  2  0
  6  2  1  0
  2  1  1  0
  3  2  2  0
  4  3  1  0
M  END
