A71EV2A-x0528_A_147_1_A71EV2A-x0526+A+147+1
     RDKit          3D

 15 16  0  0  0  0  0  0  0  0999 V2000
    9.4060   16.2960   21.8750 O   0  0  0  0  0  0  0  0  0  0  0  0
   10.3900   15.6220   22.1300 C   0  0  0  0  0  0  0  0  0  0  0  0
   11.6600   16.0100   21.9760 N   0  0  0  0  0  0  0  0  0  0  0  0
   12.0800   17.0660   21.0670 C   0  0  0  0  0  0  0  0  0  0  0  0
   10.4130   14.1910   22.6530 C   0  0  1  0  0  0  0  0  0  0  0  0
   11.8710   13.9820   23.0990 C   0  0  0  0  0  0  0  0  0  0  0  0
   12.6160   15.2700   22.7760 C   0  0  0  0  0  0  0  0  0  0  0  0
    9.5150   14.0420   23.7680 O   0  0  0  0  0  0  0  0  0  0  0  0
    9.0660   12.7780   24.1060 C   0  0  0  0  0  0  0  0  0  0  0  0
    9.5800   11.6170   23.5400 C   0  0  0  0  0  0  0  0  0  0  0  0
    9.0490   10.4230   23.9590 C   0  0  0  0  0  0  0  0  0  0  0  0
    9.5780    9.2780   23.4500 F   0  0  0  0  0  0  0  0  0  0  0  0
    8.0500   10.3210   24.8880 C   0  0  0  0  0  0  0  0  0  0  0  0
    7.5480   11.4900   25.4360 C   0  0  0  0  0  0  0  0  0  0  0  0
    8.0530   12.7220   25.0500 C   0  0  0  0  0  0  0  0  0  0  0  0
  4  3  1  0
  3  7  1  0
  7  6  1  0
  6  5  1  0
  5  8  1  1
  9  8  1  0
  9 15  2  0
 15 14  1  0
 14 13  2  0
 13 11  1  0
 12 11  1  0
 11 10  2  0
 10  9  1  0
  5  2  1  0
  3  2  1  0
  2  1  2  0
M  END
