XX01ZVNS2B-x0945_B_301_XX01ZVNS2B-x1291+B+301+1
     RDKit          3D

 14 15  0  0  0  0  0  0  0  0999 V2000
  -10.8320    4.5360  -18.6140 C   0  0  0  0  0  0  0  0  0  0  0  0
  -10.2550    3.8890  -17.4800 O   0  0  0  0  0  0  0  0  0  0  0  0
   -9.1040    4.3890  -16.9930 C   0  0  0  0  0  0  0  0  0  0  0  0
   -8.1400    4.7250  -17.8350 N   0  0  0  0  0  0  0  0  0  0  0  0
   -7.0110    5.2040  -17.2930 C   0  0  0  0  0  0  0  0  0  0  0  0
   -6.7870    5.3770  -15.9820 N   0  0  0  0  0  0  0  0  0  0  0  0
   -7.7960    5.0130  -15.1720 C   0  0  0  0  0  0  0  0  0  0  0  0
   -9.0030    4.5010  -15.6080 C   0  0  0  0  0  0  0  0  0  0  0  0
   -5.9850    5.5040  -18.1470 N   0  0  0  0  0  0  0  0  0  0  0  0
   -6.1430    5.5030  -19.6080 C   0  0  0  0  0  0  0  0  0  0  0  0
   -5.3040    6.5930  -20.2670 C   0  0  0  0  0  0  0  0  0  0  0  0
   -4.5420    7.3980  -19.2730 N   0  0  0  0  0  0  0  0  0  0  0  0
   -3.7560    6.5450  -18.3320 C   0  0  0  0  0  0  0  0  0  0  0  0
   -4.5730    5.3980  -17.7560 C   0  0  0  0  0  0  0  0  0  0  0  0
  2  1  1  0
  3  2  1  0
  3  8  2  0
  8  7  1  0
  7  6  2  0
  6  5  1  0
  5  4  2  0
  4  3  1  0
  9  5  1  0
  9 14  1  0
 14 13  1  0
 13 12  1  0
 12 11  1  0
 11 10  1  0
 10  9  1  0
M  END

$$$$
