XX01ZVNS2B-x0229_B_301_XX01ZVNS2B-x1291+B+301+1
     RDKit          3D

 15 17  0  0  0  0  0  0  0  0999 V2000
   -3.8820    5.1330  -17.4830 O   0  0  0  0  0  0  0  0  0  0  0  0
   -5.0740    5.3820  -17.6180 C   0  0  0  0  0  0  0  0  0  0  0  0
   -5.6230    5.7430  -18.9860 C   0  0  1  0  0  0  0  0  0  0  0  0
   -5.9920    7.2400  -18.9730 C   0  0  0  0  0  0  0  0  0  0  0  0
   -5.3900    7.8030  -20.2320 C   0  0  0  0  0  0  0  0  0  0  0  0
   -4.1960    6.9000  -20.4920 C   0  0  0  0  0  0  0  0  0  0  0  0
   -4.6080    5.6000  -20.0470 N   0  0  0  0  0  0  0  0  0  0  0  0
   -6.8340    4.8650  -19.3200 C   0  0  0  0  0  0  0  0  0  0  0  0
   -7.8070    4.8390  -18.1600 C   0  0  0  0  0  0  0  0  0  0  0  0
   -9.1580    4.5710  -18.3570 C   0  0  0  0  0  0  0  0  0  0  0  0
  -10.0130    4.4320  -17.2810 C   0  0  0  0  0  0  0  0  0  0  0  0
   -9.5430    4.5920  -15.9890 C   0  0  0  0  0  0  0  0  0  0  0  0
   -8.2110    4.8860  -15.7620 C   0  0  0  0  0  0  0  0  0  0  0  0
   -7.3370    4.9910  -16.8470 C   0  0  0  0  0  0  0  0  0  0  0  0
   -5.9700    5.1790  -16.6360 N   0  0  0  0  0  0  0  0  0  0  0  0
  2  1  2  0
  2 15  1  0
 15 14  1  0
 14  9  2  0
 10  9  1  0
 11 10  2  0
 12 11  1  0
 13 12  2  0
 14 13  1  0
  9  8  1  0
  3  8  1  6
  3  2  1  0
  3  7  1  0
  7  6  1  0
  6  5  1  0
  5  4  1  0
  4  3  1  0
M  END
