XX01ZVNS2B-x1237_B_301_XX01ZVNS2B-x1291+B+301+1
     RDKit          3D

 20 22  0  0  0  0  0  0  0  0999 V2000
   -8.6060    6.7390  -11.5270 C   0  0  0  0  0  0  0  0  0  0  0  0
   -8.5800    5.3450  -10.9540 C   0  0  0  0  0  0  0  0  0  0  0  0
   -8.6540    5.1620   -9.5820 C   0  0  0  0  0  0  0  0  0  0  0  0
   -8.6380    3.9510   -9.0000 N   0  0  0  0  0  0  0  0  0  0  0  0
   -8.5390    2.8860   -9.8000 C   0  0  0  0  0  0  0  0  0  0  0  0
   -8.4640    2.9600  -11.1650 C   0  0  0  0  0  0  0  0  0  0  0  0
   -8.4810    4.2090  -11.7640 C   0  0  0  0  0  0  0  0  0  0  0  0
   -8.4030    4.3250  -13.1720 N   0  0  0  0  0  0  0  0  0  0  0  0
   -7.4100    4.9190  -13.8870 C   0  0  0  0  0  0  0  0  0  0  0  0
   -6.5000    5.5520  -13.3640 O   0  0  0  0  0  0  0  0  0  0  0  0
   -7.5120    4.7840  -15.3470 C   0  0  0  0  0  0  0  0  0  0  0  0
   -8.6520    4.4280  -16.0970 C   0  0  0  0  0  0  0  0  0  0  0  0
   -8.3210    4.4350  -17.4300 C   0  0  0  0  0  0  0  0  0  0  0  0
   -9.1040    4.1360  -18.6290 C   0  0  0  0  0  0  0  0  0  0  0  0
  -10.5860    3.9490  -18.5340 C   0  0  0  0  0  0  0  0  0  0  0  0
   -9.7160    2.7800  -18.7770 C   0  0  0  0  0  0  0  0  0  0  0  0
   -6.9930    4.7880  -17.5510 N   0  0  0  0  0  0  0  0  0  0  0  0
   -6.2500    4.9090  -18.8060 C   0  0  0  0  0  0  0  0  0  0  0  0
   -6.4800    5.0100  -16.2490 C   0  0  0  0  0  0  0  0  0  0  0  0
   -5.0610    5.4060  -16.0360 C   0  0  0  0  0  0  0  0  0  0  0  0
  1  2  1  0
  2  3  2  0
  3  4  1  0
  4  5  2  0
  5  6  1  0
  6  7  2  0
  7  8  1  0
  8  9  1  0
  9 10  2  0
  9 11  1  0
 11 12  1  0
 12 13  2  0
 13 14  1  0
 14 15  1  0
 15 16  1  0
 13 17  1  0
 17 18  1  0
 17 19  1  0
 19 20  1  0
  2  7  1  0
 11 19  2  0
 14 16  1  0
M  END
