A71EV2A-x0515_A_147_1_A71EV2A-x0395+A+148+1
     RDKit          3D

 11 11  0  0  0  0  0  0  0  0999 V2000
   15.9830   -6.5880   17.9300 O   0  0  0  0  0  0  0  0  0  0  0  0
   17.1860   -6.6360   17.9530 C   0  0  0  0  0  0  0  0  0  0  0  0
   17.8960   -6.6030   19.0760 O   0  0  0  0  0  0  0  0  0  0  0  0
   17.7720   -5.4030   19.8760 C   0  0  0  0  0  0  0  0  0  0  0  0
   18.0400   -6.7450   16.7380 C   0  0  0  0  0  0  0  0  0  0  0  0
   17.5530   -7.3550   15.5570 C   0  0  0  0  0  0  0  0  0  0  0  0
   16.2700   -7.8520   15.4490 N   0  0  0  0  0  0  0  0  0  0  0  0
   18.4050   -7.4350   14.4550 C   0  0  0  0  0  0  0  0  0  0  0  0
   19.6520   -6.9490   14.4570 N   0  0  0  0  0  0  0  0  0  0  0  0
   20.0890   -6.3640   15.5810 C   0  0  0  0  0  0  0  0  0  0  0  0
   19.3410   -6.2390   16.7380 C   0  0  0  0  0  0  0  0  0  0  0  0
  4  3  1  0
  3  2  1  0
  2  1  2  0
  5  2  1  0
  5 11  2  0
 11 10  1  0
 10  9  2  0
  9  8  1  0
  8  6  2  0
  6  5  1  0
  7  6  1  0
M  END
