A71EV2A-x0812_A_147_1_A71EV2A-x0526+A+147+1
     RDKit          3D

 13 14  0  0  0  0  0  0  0  0999 V2000
    8.7580   14.9390   22.6900 O   0  0  0  0  0  0  0  0  0  0  0  0
    9.4160   13.9080   22.4830 C   0  0  0  0  0  0  0  0  0  0  0  0
   10.6450   13.9230   21.9780 N   0  0  0  0  0  0  0  0  0  0  0  0
    8.8460   12.5780   22.8010 C   0  0  0  0  0  0  0  0  0  0  0  0
    9.3730   11.4560   22.3090 N   0  0  0  0  0  0  0  0  0  0  0  0
    7.7030   12.2900   23.6240 C   0  0  0  0  0  0  0  0  0  0  0  0
    7.5800   10.8970   23.5810 C   0  0  0  0  0  0  0  0  0  0  0  0
    8.5890   10.4350   22.7900 N   0  0  0  0  0  0  0  0  0  0  0  0
    8.8940    9.0560   22.4400 C   0  0  0  0  0  0  0  0  0  0  0  0
    6.5810   10.2310   24.2790 C   0  0  0  0  0  0  0  0  0  0  0  0
    5.6950   10.9820   25.0380 C   0  0  0  0  0  0  0  0  0  0  0  0
    5.8000   12.3630   25.0890 C   0  0  0  0  0  0  0  0  0  0  0  0
    6.8000   13.0260   24.3870 C   0  0  0  0  0  0  0  0  0  0  0  0
  9  8  1  0
  8  5  1  0
  5  4  2  0
  4  2  1  0
  2  1  2  0
  3  2  1  0
  6  4  1  0
  6 13  2  0
 13 12  1  0
 12 11  2  0
 11 10  1  0
 10  7  2  0
  8  7  1  0
  7  6  1  0
M  END
