XX01ZVNS2B-x1046_B_301_XX01ZVNS2B-x1291+B+301+1
     RDKit          3D

 16 16  0  0  0  0  0  0  0  0999 V2000
   -0.9140    5.9240  -26.2970 O   0  0  0  0  0  0  0  0  0  0  0  0
   -0.5420    5.2320  -25.3410 C   0  0  0  0  0  0  0  0  0  0  0  0
    0.8450    4.6570  -25.2570 C   0  0  0  0  0  0  0  0  0  0  0  0
   -1.3530    4.9100  -24.3110 N   0  0  0  0  0  0  0  0  0  0  0  0
   -2.7020    5.2550  -24.1020 C   0  0  0  0  0  0  0  0  0  0  0  0
   -3.3560    4.6700  -23.0280 C   0  0  0  0  0  0  0  0  0  0  0  0
   -4.6510    5.0400  -22.7250 C   0  0  0  0  0  0  0  0  0  0  0  0
   -5.3010    6.0080  -23.4600 C   0  0  0  0  0  0  0  0  0  0  0  0
   -3.3700    6.1850  -24.8880 C   0  0  0  0  0  0  0  0  0  0  0  0
   -4.6680    6.5670  -24.5620 C   0  0  0  0  0  0  0  0  0  0  0  0
   -5.2890    7.4790  -25.4370 N   0  0  0  0  0  0  0  0  0  0  0  0
   -6.2840    8.3490  -25.1630 C   0  0  0  0  0  0  0  0  0  0  0  0
   -6.7680    8.5030  -24.0520 O   0  0  0  0  0  0  0  0  0  0  0  0
   -6.7940    9.1460  -26.3450 C   0  0  0  0  0  0  0  0  0  0  0  0
   -7.8110   10.0120  -25.8810 O   0  0  0  0  0  0  0  0  0  0  0  0
   -8.2000   10.9570  -26.8370 C   0  0  0  0  0  0  0  0  0  0  0  0
 16 15  1  0
 15 14  1  0
 14 12  1  0
 13 12  2  0
 12 11  1  0
 11 10  1  0
 10  8  1  0
  8  7  2  0
  7  6  1  0
  6  5  2  0
  5  4  1  0
  4  2  1  0
  2  1  2  0
  3  2  1  0
  9  5  1  0
 10  9  2  0
M  END
