XX01ZVNS2B-x1451_B_301_XX01ZVNS2B-x1291+B+301+1
     RDKit          3D

 23 25  0  0  0  0  0  0  0  0999 V2000
   -1.7890    8.3430  -16.6790 C   0  0  0  0  0  0  0  0  0  0  0  0
   -2.2280    7.0850  -16.0990 N   0  0  0  0  0  0  0  0  0  0  0  0
   -3.4530    6.5410  -16.3150 C   0  0  0  0  0  0  0  0  0  0  0  0
   -3.9650    5.5670  -15.4530 C   0  0  0  0  0  0  0  0  0  0  0  0
   -5.2130    5.0480  -15.7180 C   0  0  0  0  0  0  0  0  0  0  0  0
   -5.9600    5.4900  -16.8050 C   0  0  0  0  0  0  0  0  0  0  0  0
   -7.3130    4.9240  -17.1060 C   0  0  0  0  0  0  0  0  0  0  0  0
   -7.5890    4.4970  -18.4060 C   0  0  0  0  0  0  0  0  0  0  0  0
   -8.8150    3.9640  -18.7520 C   0  0  0  0  0  0  0  0  0  0  0  0
   -9.8050    3.8340  -17.8040 C   0  0  0  0  0  0  0  0  0  0  0  0
   -9.5670    4.2410  -16.5110 C   0  0  0  0  0  0  0  0  0  0  0  0
   -8.3310    4.7820  -16.1440 C   0  0  0  0  0  0  0  0  0  0  0  0
   -8.2090    5.1950  -14.7110 C   0  0  0  0  0  0  0  0  0  0  0  0
   -7.7350    6.2790  -14.4150 O   0  0  0  0  0  0  0  0  0  0  0  0
   -8.6710    4.2920  -13.7940 N   0  0  0  0  0  0  0  0  0  0  0  0
   -8.5960    4.4190  -12.4000 C   0  0  0  0  0  0  0  0  0  0  0  0
   -8.8970    3.4290  -11.4450 C   0  0  0  0  0  0  0  0  0  0  0  0
   -8.7290    3.8720  -10.2160 N   0  0  0  0  0  0  0  0  0  0  0  0
   -8.3160    5.1690  -10.3620 N   0  0  0  0  0  0  0  0  0  0  0  0
   -8.0320    5.9590   -9.1660 C   0  0  0  0  0  0  0  0  0  0  0  0
   -8.2190    5.5300  -11.6610 C   0  0  0  0  0  0  0  0  0  0  0  0
   -5.3500    6.4500  -17.6090 C   0  0  0  0  0  0  0  0  0  0  0  0
   -4.1360    6.9790  -17.3900 N   0  0  0  0  0  0  0  0  0  0  0  0
  1  2  1  0
  2  3  1  0
  3  4  2  0
  4  5  1  0
  5  6  2  0
  6  7  1  0
  7  8  2  0
  8  9  1  0
  9 10  2  0
 10 11  1  0
 11 12  2  0
 12 13  1  0
 13 14  2  0
 13 15  1  0
 15 16  1  0
 16 17  1  0
 17 18  2  0
 18 19  1  0
 19 20  1  0
 19 21  1  0
  6 22  1  0
 22 23  2  0
  3 23  1  0
  7 12  1  0
 16 21  2  0
M  END
