A71EV2A-x1293_A_151_1_A71EV2A-x0395+A+148+1
     RDKit          3D

 10 11  0  0  0  0  0  0  0  0999 V2000
   18.4600    1.2170   21.8960 N   0  0  0  0  0  0  0  0  0  0  0  0
   18.1290   -0.0590   21.6780 C   0  0  0  0  0  0  0  0  0  0  0  0
   18.4410   -1.0780   22.5780 N   0  0  0  0  0  0  0  0  0  0  0  0
   17.8520   -2.2130   22.0180 C   0  0  0  0  0  0  0  0  0  0  0  0
   17.2610   -1.9100   20.8620 N   0  0  0  0  0  0  0  0  0  0  0  0
   17.4390   -0.5370   20.6500 N   0  0  0  0  0  0  0  0  0  0  0  0
   19.1190   -1.1210   23.7830 C   0  0  0  0  0  0  0  0  0  0  0  0
   19.1920   -2.2840   24.4650 C   0  0  0  0  0  0  0  0  0  0  0  0
   18.5890   -3.4510   23.9410 C   0  0  0  0  0  0  0  0  0  0  0  0
   17.9350   -3.4270   22.7460 C   0  0  0  0  0  0  0  0  0  0  0  0
  2  1  1  0
  2  6  2  0
  6  5  1  0
  5  4  2  0
  4 10  1  0
 10  9  2  0
  9  8  1  0
  8  7  2  0
  7  3  1  0
  3  2  1  0
  4  3  1  0
M  END

$$$$
