XX01ZVNS2B-x0944_B_301_XX01ZVNS2B-x0130+B+204+1
     RDKit          3D

 15 16  0  0  0  0  0  0  0  0999 V2000
  -26.3340   -4.1250   -4.2230 O   0  0  0  0  0  0  0  0  0  0  0  0
  -25.9220   -5.1600   -3.7240 C   0  0  0  0  0  0  0  0  0  0  0  0
  -25.1760   -6.1400   -4.5860 C   0  0  0  0  0  0  0  0  0  0  0  0
  -23.8340   -5.8730   -4.8470 C   0  0  0  0  0  0  0  0  0  0  0  0
  -23.1300   -6.6190   -5.7820 C   0  0  0  0  0  0  0  0  0  0  0  0
  -23.7440   -7.6570   -6.4540 C   0  0  0  0  0  0  0  0  0  0  0  0
  -25.7940   -7.2000   -5.2430 C   0  0  0  0  0  0  0  0  0  0  0  0
  -25.0560   -7.9200   -6.1600 C   0  0  0  0  0  0  0  0  0  0  0  0
  -25.6760   -8.9150   -6.8390 F   0  0  0  0  0  0  0  0  0  0  0  0
  -26.0840   -5.4300   -2.4050 N   0  0  0  0  0  0  0  0  0  0  0  0
  -26.7500   -4.4640   -1.5210 C   0  0  0  0  0  0  0  0  0  0  0  0
  -28.0140   -5.0440   -0.9270 C   0  0  0  0  0  0  0  0  0  0  0  0
  -27.9160   -6.5080   -0.6460 N   0  0  0  0  0  0  0  0  0  0  0  0
  -26.5200   -7.0120   -0.5300 C   0  0  0  0  0  0  0  0  0  0  0  0
  -25.6660   -6.6700   -1.7340 C   0  0  0  0  0  0  0  0  0  0  0  0
  9  8  1  0
  8  6  2  0
  6  5  1  0
  5  4  2  0
  4  3  1  0
  7  3  2  0
  8  7  1  0
  3  2  1  0
  2  1  2  0
 10  2  1  0
 10 15  1  0
 15 14  1  0
 14 13  1  0
 13 12  1  0
 12 11  1  0
 11 10  1  0
M  END
