A71EV2A-x0875_A_147_1_A71EV2A-x0395+A+148+1
     RDKit          3D

 14 14  0  0  0  0  0  0  0  0999 V2000
   11.3510  -13.3400    8.6120 O   0  0  0  0  0  0  0  0  0  0  0  0
   11.2030  -12.7380    9.6520 C   0  0  0  0  0  0  0  0  0  0  0  0
   10.4870  -13.1830   10.6510 O   0  0  0  0  0  0  0  0  0  0  0  0
   11.8010  -11.3720    9.9030 C   0  0  0  0  0  0  0  0  0  0  0  0
   10.7070  -10.3930   10.3230 C   0  0  0  0  0  0  0  0  0  0  0  0
   10.6070  -10.3970   11.8400 C   0  0  0  0  0  0  0  0  0  0  0  0
   12.9060  -11.3880   10.9730 C   0  0  0  0  0  0  0  0  0  0  0  0
   13.0240  -10.0290   11.6790 C   0  0  0  0  0  0  0  0  0  0  0  0
   11.7790   -9.6970   12.4000 N   0  0  0  0  0  0  0  0  0  0  0  0
   11.6300   -8.2160   13.0840 S   0  0  0  0  0  0  0  0  0  0  0  0
   12.1580   -8.3170   14.4090 O   0  0  0  0  0  0  0  0  0  0  0  0
   12.2300   -7.2850   12.1890 O   0  0  0  0  0  0  0  0  0  0  0  0
    9.8890   -7.8470   13.2010 C   0  0  0  0  0  0  0  0  0  0  0  0
    9.1840   -7.8140   11.8640 C   0  0  0  0  0  0  0  0  0  0  0  0
 14 13  1  0
 13 10  1  0
 11 10  2  0
 12 10  2  0
 10  9  1  0
  9  6  1  0
  6  5  1  0
  5  4  1  0
  7  4  1  0
  8  7  1  0
  9  8  1  0
  4  2  1  0
  2  1  2  0
  3  2  1  0
M  END

$$$$
