XX01ZVNS2B-x1596_B_301_XX01ZVNS2B-x1291+B+301+1
     RDKit          3D

 26 29  0  0  0  0  0  0  0  0999 V2000
  -10.5690    4.4900  -18.5980 C   0  0  0  0  0  0  0  0  0  0  0  0
  -10.1240    4.1670  -17.2720 O   0  0  0  0  0  0  0  0  0  0  0  0
   -8.8880    4.5540  -16.9040 C   0  0  0  0  0  0  0  0  0  0  0  0
   -8.5920    4.6360  -15.5580 C   0  0  0  0  0  0  0  0  0  0  0  0
   -7.3220    5.0140  -15.1880 C   0  0  0  0  0  0  0  0  0  0  0  0
   -6.8910    5.1400  -13.7530 C   0  0  0  0  0  0  0  0  0  0  0  0
   -5.6870    5.9240  -13.6890 O   0  0  0  0  0  0  0  0  0  0  0  0
   -4.4740    5.3150  -13.5770 C   0  0  0  0  0  0  0  0  0  0  0  0
   -3.3760    6.1310  -13.5770 C   0  0  0  0  0  0  0  0  0  0  0  0
   -2.0900    5.5660  -13.4540 C   0  0  0  0  0  0  0  0  0  0  0  0
   -0.8640    6.4230  -13.4480 C   0  0  0  0  0  0  0  0  0  0  0  0
   -1.8420    4.2200  -13.3400 N   0  0  0  0  0  0  0  0  0  0  0  0
   -2.9630    3.4630  -13.3400 C   0  0  0  0  0  0  0  0  0  0  0  0
   -3.0170    2.1390  -13.2410 N   0  0  0  0  0  0  0  0  0  0  0  0
   -4.3310    1.8860  -13.2980 C   0  0  0  0  0  0  0  0  0  0  0  0
   -5.1220    2.9590  -13.4270 N   0  0  0  0  0  0  0  0  0  0  0  0
   -4.2240    3.9620  -13.4500 N   0  0  0  0  0  0  0  0  0  0  0  0
   -6.4030    5.3190  -16.1190 N   0  0  0  0  0  0  0  0  0  0  0  0
   -6.7600    5.2370  -17.4220 C   0  0  0  0  0  0  0  0  0  0  0  0
   -5.8290    5.5190  -18.3720 N   0  0  0  0  0  0  0  0  0  0  0  0
   -6.1020    5.3430  -19.7950 C   0  0  0  0  0  0  0  0  0  0  0  0
   -4.8180    5.4790  -20.5850 C   0  0  0  0  0  0  0  0  0  0  0  0
   -4.2850    6.8340  -20.4830 N   0  0  0  0  0  0  0  0  0  0  0  0
   -4.4240    7.3710  -19.1310 C   0  0  0  0  0  0  0  0  0  0  0  0
   -4.6060    6.2740  -18.0990 C   0  0  0  0  0  0  0  0  0  0  0  0
   -7.9820    4.8430  -17.8390 N   0  0  0  0  0  0  0  0  0  0  0  0
  1  2  1  0
  2  3  1  0
  3  4  2  0
  4  5  1  0
  5  6  1  0
  6  7  1  0
  7  8  1  0
  8  9  2  0
  9 10  1  0
 10 11  1  0
 10 12  2  0
 12 13  1  0
 13 14  2  0
 14 15  1  0
 15 16  2  0
 16 17  1  0
  5 18  2  0
 18 19  1  0
 19 20  1  0
 20 21  1  0
 21 22  1  0
 22 23  1  0
 23 24  1  0
 24 25  1  0
 19 26  2  0
  3 26  1  0
  8 17  1  0
 20 25  1  0
 13 17  1  0
M  END
