XX01ZVNS2B-x1745_B_301_XX01ZVNS2B-x1291+B+301+1
     RDKit          3D

 11 12  0  0  0  0  0  0  0  0999 V2000
   -5.7970    4.9330  -20.1170 N   0  0  0  0  0  0  0  0  0  0  0  0
   -5.8520    5.0360  -18.7490 C   0  0  0  0  0  0  0  0  0  0  0  0
   -4.7260    5.4560  -18.0400 C   0  0  0  0  0  0  0  0  0  0  0  0
   -4.7220    5.5810  -16.7030 N   0  0  0  0  0  0  0  0  0  0  0  0
   -5.8200    5.2810  -16.0310 C   0  0  0  0  0  0  0  0  0  0  0  0
   -7.0370    4.8340  -16.6230 C   0  0  0  0  0  0  0  0  0  0  0  0
   -8.2000    4.5130  -15.8880 C   0  0  0  0  0  0  0  0  0  0  0  0
   -9.3220    4.0760  -16.5310 C   0  0  0  0  0  0  0  0  0  0  0  0
   -9.3480    3.9530  -17.9290 C   0  0  0  0  0  0  0  0  0  0  0  0
   -8.2390    4.2570  -18.6690 C   0  0  0  0  0  0  0  0  0  0  0  0
   -7.0530    4.7090  -18.0380 C   0  0  0  0  0  0  0  0  0  0  0  0
  1  2  1  0
  2  3  2  0
  3  4  1  0
  4  5  2  0
  5  6  1  0
  6  7  2  0
  7  8  1  0
  8  9  2  0
  9 10  1  0
 10 11  2  0
  2 11  1  0
  6 11  1  0
M  END
