XX01ZVNS2B-x2119_B_301_XX01ZVNS2B-x1291+B+301+1
     RDKit          3D

 27 29  0  0  0  0  0  0  0  0999 V2000
   -6.9440    4.2700   -5.6910 N   0  0  0  0  0  0  0  0  0  0  0  0
   -6.2560    4.9420   -6.8010 C   0  0  0  0  0  0  0  0  0  0  0  0
   -6.9070    4.6230   -8.1260 C   0  0  0  0  0  0  0  0  0  0  0  0
   -7.8380    5.4760   -8.6980 C   0  0  0  0  0  0  0  0  0  0  0  0
   -8.4480    5.1540   -9.8990 C   0  0  0  0  0  0  0  0  0  0  0  0
   -8.2170    3.9340  -10.5130 C   0  0  0  0  0  0  0  0  0  0  0  0
   -8.8170    3.6220  -11.8600 C   0  0  0  0  0  0  0  0  0  0  0  0
   -7.8020    3.8880  -12.9830 C   0  0  2  0  0  0  0  0  0  0  0  0
   -8.4310    4.0330  -14.2760 N   0  0  0  0  0  0  0  0  0  0  0  0
   -7.7800    4.5960  -15.3010 C   0  0  0  0  0  0  0  0  0  0  0  0
   -6.7170    5.1970  -15.1510 O   0  0  0  0  0  0  0  0  0  0  0  0
   -8.4010    4.4730  -16.6640 C   0  0  0  0  0  0  0  0  0  0  0  0
   -7.6440    4.7580  -17.7940 C   0  0  0  0  0  0  0  0  0  0  0  0
   -8.2080    4.6520  -19.0530 C   0  0  0  0  0  0  0  0  0  0  0  0
   -9.5320    4.3040  -19.1980 C   0  0  0  0  0  0  0  0  0  0  0  0
  -10.2980    4.0470  -18.0840 C   0  0  0  0  0  0  0  0  0  0  0  0
   -9.7360    4.1270  -16.8230 C   0  0  0  0  0  0  0  0  0  0  0  0
   -6.7390    2.7880  -13.0180 C   0  0  0  0  0  0  0  0  0  0  0  0
   -7.0410    1.6510  -13.3980 O   0  0  0  0  0  0  0  0  0  0  0  0
   -5.4860    3.0870  -12.6150 N   0  0  0  0  0  0  0  0  0  0  0  0
   -4.9860    4.4330  -12.2740 C   0  0  0  0  0  0  0  0  0  0  0  0
   -3.4680    4.4940  -12.2120 C   0  0  0  0  0  0  0  0  0  0  0  0
   -2.8280    3.7210  -13.3580 C   0  0  0  0  0  0  0  0  0  0  0  0
   -3.2880    2.2660  -13.3870 C   0  0  0  0  0  0  0  0  0  0  0  0
   -4.4870    2.0170  -12.4850 C   0  0  0  0  0  0  0  0  0  0  0  0
   -7.2740    3.0940   -9.9470 C   0  0  0  0  0  0  0  0  0  0  0  0
   -6.6210    3.4340   -8.7760 C   0  0  0  0  0  0  0  0  0  0  0  0
  1  2  1  0
  2  3  1  0
  3  4  2  0
  4  5  1  0
  5  6  2  0
  6  7  1  0
  8  7  1  1
  8  9  1  0
  9 10  1  0
 10 11  2  0
 10 12  1  0
 12 13  2  0
 13 14  1  0
 14 15  2  0
 15 16  1  0
 16 17  2  0
  8 18  1  0
 18 19  2  0
 18 20  1  0
 20 21  1  0
 21 22  1  0
 22 23  1  0
 23 24  1  0
 24 25  1  0
  6 26  1  0
 26 27  2  0
  3 27  1  0
 12 17  1  0
 20 25  1  0
M  END
