XX01ZVNS2B-x0589_B_301_XX01ZVNS2B-x1291+B+301+1
     RDKit          3D

  8  8  0  0  0  0  0  0  0  0999 V2000
  -10.8080    3.8620  -18.6040 Br  0  0  0  0  0  0  0  0  0  0  0  0
   -9.1180    4.3370  -17.8780 C   0  0  0  0  0  0  0  0  0  0  0  0
   -8.0460    4.5590  -18.7140 C   0  0  0  0  0  0  0  0  0  0  0  0
   -6.8420    4.9400  -18.1470 C   0  0  0  0  0  0  0  0  0  0  0  0
   -6.7420    5.0780  -16.7800 C   0  0  0  0  0  0  0  0  0  0  0  0
   -9.0020    4.4780  -16.5130 C   0  0  0  0  0  0  0  0  0  0  0  0
   -7.8120    4.8440  -15.9910 N   0  0  0  0  0  0  0  0  0  0  0  0
   -7.6870    4.9960  -14.5250 C   0  0  0  0  0  0  0  0  0  0  0  0
  8  7  1  0
  7  5  1  0
  5  4  2  0
  4  3  1  0
  3  2  2  0
  2  1  1  0
  6  2  1  0
  7  6  2  0
M  CHG  1   7   1
M  END

$$$$
