XX01ZVNS2B-x0404_B_301_XX01ZVNS2B-x1291+B+301+1
     RDKit          3D

 16 17  0  0  0  0  0  0  0  0999 V2000
   -8.3120    8.5090  -13.4620 O   0  0  0  0  0  0  0  0  0  0  0  0
   -8.9420    7.2480  -13.7380 S   0  0  0  0  0  0  0  0  0  0  0  0
   -8.5380    6.5360  -14.9160 O   0  0  0  0  0  0  0  0  0  0  0  0
  -10.6770    7.4900  -13.7970 C   0  0  0  0  0  0  0  0  0  0  0  0
   -8.6990    6.1920  -12.3420 C   0  0  0  0  0  0  0  0  0  0  0  0
   -8.4860    6.7540  -11.0950 C   0  0  0  0  0  0  0  0  0  0  0  0
   -8.4720    5.9410   -9.9780 C   0  0  0  0  0  0  0  0  0  0  0  0
   -8.6730    4.5630  -10.0920 C   0  0  0  0  0  0  0  0  0  0  0  0
   -8.8250    4.0100  -11.3680 C   0  0  0  0  0  0  0  0  0  0  0  0
   -8.8350    4.8190  -12.4900 C   0  0  0  0  0  0  0  0  0  0  0  0
   -8.8090    3.7710   -8.9470 N   0  0  0  0  0  0  0  0  0  0  0  0
   -8.8140    2.3090   -9.0770 C   0  0  0  0  0  0  0  0  0  0  0  0
   -9.5570    1.6990   -7.9140 C   0  0  0  0  0  0  0  0  0  0  0  0
   -8.9250    2.1070   -6.6460 N   0  0  0  0  0  0  0  0  0  0  0  0
   -8.8550    3.5800   -6.5100 C   0  0  0  0  0  0  0  0  0  0  0  0
   -8.1780    4.2220   -7.7020 C   0  0  0  0  0  0  0  0  0  0  0  0
  4  2  1  0
  3  2  2  0
  2  1  2  0
  5  2  1  0
  5 10  2  0
 10  9  1  0
  9  8  2  0
  8  7  1  0
  7  6  2  0
  6  5  1  0
 11  8  1  0
 11 16  1  0
 16 15  1  0
 15 14  1  0
 14 13  1  0
 13 12  1  0
 12 11  1  0
M  END
