XX01ZVNS2B-x1333_B_301_XX01ZVNS2B-x1291+B+301+1
     RDKit          3D

 28 29  0  0  0  0  0  0  0  0999 V2000
   -8.5880    1.7170   -6.9580 C   0  0  0  0  0  0  0  0  0  0  0  0
   -8.1530    2.6130   -8.0270 N   0  0  0  0  0  0  0  0  0  0  0  0
   -7.1200    1.9830   -8.8540 C   0  0  0  0  0  0  0  0  0  0  0  0
   -9.2890    3.0320   -8.8470 C   0  0  0  0  0  0  0  0  0  0  0  0
   -8.9450    4.1900   -9.7440 C   0  0  0  0  0  0  0  0  0  0  0  0
   -9.1450    4.1140  -11.1180 C   0  0  0  0  0  0  0  0  0  0  0  0
   -8.8390    5.1770  -11.9550 C   0  0  0  0  0  0  0  0  0  0  0  0
   -9.0770    5.0810  -13.4370 C   0  0  0  0  0  0  0  0  0  0  0  0
   -7.9540    4.5960  -14.2150 N   0  0  0  0  0  0  0  0  0  0  0  0
   -7.9900    4.5840  -15.5950 C   0  0  0  0  0  0  0  0  0  0  0  0
   -9.1610    4.1980  -16.2300 C   0  0  0  0  0  0  0  0  0  0  0  0
   -9.2050    4.1850  -17.6090 C   0  0  0  0  0  0  0  0  0  0  0  0
  -10.7280    3.6800  -18.3480 Cl  0  0  0  0  0  0  0  0  0  0  0  0
   -8.1140    4.5520  -18.3720 C   0  0  0  0  0  0  0  0  0  0  0  0
   -6.9320    4.9470  -17.7430 C   0  0  0  0  0  0  0  0  0  0  0  0
   -5.7090    5.3500  -18.5280 C   0  0  0  0  0  0  0  0  0  0  0  0
   -4.7430    5.8690  -17.9640 O   0  0  0  0  0  0  0  0  0  0  0  0
   -5.7200    5.1030  -19.8390 N   0  0  0  0  0  0  0  0  0  0  0  0
   -4.7340    5.5930  -20.8480 C   0  0  0  0  0  0  0  0  0  0  0  0
   -3.3250    5.1490  -20.4460 C   0  0  0  0  0  0  0  0  0  0  0  0
   -5.1000    4.9850  -22.2030 C   0  0  0  0  0  0  0  0  0  0  0  0
   -4.8270    7.1230  -20.9520 C   0  0  0  0  0  0  0  0  0  0  0  0
   -3.8340    7.8190  -20.2110 O   0  0  0  0  0  0  0  0  0  0  0  0
   -6.8740    4.9590  -16.3490 C   0  0  0  0  0  0  0  0  0  0  0  0
   -8.3220    6.3340  -11.3970 C   0  0  0  0  0  0  0  0  0  0  0  0
   -8.1080    6.4350  -10.0360 C   0  0  0  0  0  0  0  0  0  0  0  0
   -8.4160    5.3680   -9.2120 C   0  0  0  0  0  0  0  0  0  0  0  0
   -8.2070    5.4710   -7.8670 O   0  0  0  0  0  0  0  0  0  0  0  0
  1  2  1  0
  2  3  1  0
  2  4  1  0
  4  5  1  0
  5  6  2  0
  6  7  1  0
  7  8  1  0
  8  9  1  0
  9 10  1  0
 10 11  2  0
 11 12  1  0
 12 13  1  0
 12 14  2  0
 14 15  1  0
 15 16  1  0
 16 17  2  0
 16 18  1  0
 18 19  1  0
 19 20  1  0
 19 21  1  0
 19 22  1  0
 22 23  1  0
 15 24  2  0
  7 25  2  0
 25 26  1  0
 26 27  2  0
 27 28  1  0
  5 27  1  0
 10 24  1  0
M  END
