A71EV2A-x0310_A_147_1_A71EV2A-x0526+A+147+1
     RDKit          3D

 14 14  0  0  0  0  0  0  0  0999 V2000
   11.8990   16.2910   23.2910 N   0  0  0  0  0  0  0  0  0  0  0  0
   11.8540   15.1980   22.9830 C   0  0  0  0  0  0  0  0  0  0  0  0
   11.6990   13.8010   22.5880 C   0  0  0  0  0  0  0  0  0  0  0  0
   10.6900   13.1000   23.4770 C   0  0  0  0  0  0  0  0  0  0  0  0
   10.4880   13.4620   24.6210 O   0  0  0  0  0  0  0  0  0  0  0  0
   10.0030   12.0810   22.9080 N   0  0  0  0  0  0  0  0  0  0  0  0
    9.0680   11.3210   23.6020 C   0  0  0  0  0  0  0  0  0  0  0  0
    9.0150    9.9090   23.5400 C   0  0  0  0  0  0  0  0  0  0  0  0
    9.8880    8.9450   22.8070 C   0  0  0  0  0  0  0  0  0  0  0  0
    8.0610   11.7220   24.4260 C   0  0  0  0  0  0  0  0  0  0  0  0
    7.6390   13.0930   24.8330 C   0  0  0  0  0  0  0  0  0  0  0  0
    7.4620   10.6030   24.8340 N   0  0  0  0  0  0  0  0  0  0  0  0
    8.0200    9.4820   24.2960 N   0  0  0  0  0  0  0  0  0  0  0  0
    6.3860   10.4640   25.8040 C   0  0  0  0  0  0  0  0  0  0  0  0
  9  8  1  0
  8 13  2  0
 13 12  1  0
 14 12  1  0
 12 10  1  0
 11 10  1  0
 10  7  2  0
  8  7  1  0
  7  6  1  0
  6  4  1  0
  5  4  2  0
  4  3  1  0
  3  2  1  0
  2  1  3  0
M  END
