XX01ZVNS2B-x0875_B_301_XX01ZVNS2B-x1291+B+301+1
     RDKit          3D

 15 16  0  0  0  0  0  0  0  0999 V2000
   -6.9920    4.1780  -19.9500 Cl  0  0  0  0  0  0  0  0  0  0  0  0
   -8.0970    4.6050  -18.6850 C   0  0  0  0  0  0  0  0  0  0  0  0
   -9.4000    4.1440  -18.7260 C   0  0  0  0  0  0  0  0  0  0  0  0
  -10.2150    4.2030  -17.6750 N   0  0  0  0  0  0  0  0  0  0  0  0
   -9.6790    4.7220  -16.5730 C   0  0  0  0  0  0  0  0  0  0  0  0
   -8.4450    5.2040  -16.4010 N   0  0  0  0  0  0  0  0  0  0  0  0
   -7.6620    5.1490  -17.4850 C   0  0  0  0  0  0  0  0  0  0  0  0
   -6.4280    5.7220  -17.3860 N   0  0  0  0  0  0  0  0  0  0  0  0
   -6.0070    6.8230  -18.2460 C   0  0  0  0  0  0  0  0  0  0  0  0
   -5.4790    5.3000  -16.3660 C   0  0  0  0  0  0  0  0  0  0  0  0
   -5.5410    6.1440  -15.1000 C   0  0  2  0  0  0  0  0  0  0  0  0
   -4.2410    6.9330  -14.8840 C   0  0  0  0  0  0  0  0  0  0  0  0
   -3.6020    6.3860  -13.7360 O   0  0  0  0  0  0  0  0  0  0  0  0
   -4.6510    5.9460  -12.8900 C   0  0  0  0  0  0  0  0  0  0  0  0
   -5.6470    5.3050  -13.8170 C   0  0  0  0  0  0  0  0  0  0  0  0
  9  8  1  0
 10  8  1  0
 11 10  1  6
 11 15  1  0
 15 14  1  0
 14 13  1  0
 13 12  1  0
 12 11  1  0
  8  7  1  0
  7  6  2  0
  6  5  1  0
  5  4  2  0
  4  3  1  0
  3  2  2  0
  7  2  1  0
  2  1  1  0
M  END
