XX01ZVNS2B-x0884_B_301_XX01ZVNS2B-x1291+B+301+1
     RDKit          3D

 14 14  0  0  0  0  0  0  0  0999 V2000
   -3.9470    6.5870  -15.0260 O   0  0  0  0  0  0  0  0  0  0  0  0
   -4.7480    6.4790  -15.9590 C   0  0  0  0  0  0  0  0  0  0  0  0
   -5.4750    7.4880  -16.4180 N   0  0  0  0  0  0  0  0  0  0  0  0
   -4.9050    5.1240  -16.6480 C   0  0  2  0  0  0  0  0  0  0  0  0
   -3.5790    4.6700  -17.2150 C   0  0  0  0  0  0  0  0  0  0  0  0
   -5.8010    5.2410  -17.7550 O   0  0  0  0  0  0  0  0  0  0  0  0
   -7.1010    4.8240  -17.6010 C   0  0  0  0  0  0  0  0  0  0  0  0
   -7.7530    4.4680  -18.7900 C   0  0  0  0  0  0  0  0  0  0  0  0
   -7.0170    4.4120  -20.0260 C   0  0  0  0  0  0  0  0  0  0  0  0
   -6.4670    4.3590  -21.0270 N   0  0  0  0  0  0  0  0  0  0  0  0
   -9.1090    4.1400  -18.7550 C   0  0  0  0  0  0  0  0  0  0  0  0
   -9.7880    4.1250  -17.5520 C   0  0  0  0  0  0  0  0  0  0  0  0
   -9.1350    4.4440  -16.3820 C   0  0  0  0  0  0  0  0  0  0  0  0
   -7.7970    4.8030  -16.3990 C   0  0  0  0  0  0  0  0  0  0  0  0
  4  5  1  6
  6  4  1  0
  7  6  1  0
  7 14  2  0
 14 13  1  0
 13 12  2  0
 12 11  1  0
 11  8  2  0
  8  7  1  0
  9  8  1  0
 10  9  3  0
  4  2  1  0
  2  1  2  0
  3  2  1  0
M  END
