XX01ZVNS2B-x0788_B_301_XX01ZVNS2B-x1291+B+301+1
     RDKit          3D

 15 16  0  0  0  0  0  0  0  0999 V2000
   -4.3930    4.3130  -16.5250 O   0  0  0  0  0  0  0  0  0  0  0  0
   -3.6630    5.1350  -17.4470 S   0  0  0  0  0  0  0  0  0  0  0  0
   -2.5010    5.8270  -16.9670 O   0  0  0  0  0  0  0  0  0  0  0  0
   -3.2010    4.1630  -18.8320 C   0  0  0  0  0  0  0  0  0  0  0  0
   -4.7860    6.3690  -18.0640 C   0  0  0  0  0  0  0  0  0  0  0  0
   -6.0880    6.2250  -18.4710 N   0  0  0  0  0  0  0  0  0  0  0  0
   -6.4880    7.4470  -18.9580 C   0  0  0  0  0  0  0  0  0  0  0  0
   -5.4270    8.2720  -18.8140 C   0  0  0  0  0  0  0  0  0  0  0  0
   -4.3650    7.6050  -18.2510 N   0  0  0  0  0  0  0  0  0  0  0  0
   -6.6860    4.9430  -18.8260 C   0  0  0  0  0  0  0  0  0  0  0  0
   -8.0320    4.7500  -18.2000 C   0  0  0  0  0  0  0  0  0  0  0  0
   -8.1780    4.6700  -16.8240 N   0  0  0  0  0  0  0  0  0  0  0  0
   -9.4140    4.3940  -16.5370 C   0  0  0  0  0  0  0  0  0  0  0  0
  -10.4710    4.2500  -17.8720 S   0  0  0  0  0  0  0  0  0  0  0  0
   -9.1660    4.5570  -18.9090 C   0  0  0  0  0  0  0  0  0  0  0  0
  4  2  1  0
  3  2  2  0
  2  1  2  0
  5  2  1  0
  5  9  2  0
  9  8  1  0
  8  7  2  0
  7  6  1  0
  6  5  1  0
 10  6  1  0
 11 10  1  0
 11 15  2  0
 15 14  1  0
 14 13  1  0
 13 12  2  0
 12 11  1  0
M  END

$$$$
