XX01ZVNS2B-x1261_B_301_XX01ZVNS2B-x1291+B+301+1
     RDKit          3D

 24 26  0  0  0  0  0  0  0  0999 V2000
   -4.8940   10.1660  -16.0470 C   0  0  0  0  0  0  0  0  0  0  0  0
   -4.9310    9.7350  -17.4050 O   0  0  0  0  0  0  0  0  0  0  0  0
   -3.9910    8.7100  -17.6940 C   0  0  0  0  0  0  0  0  0  0  0  0
   -4.4440    7.3740  -17.1580 C   0  0  0  0  0  0  0  0  0  0  0  0
   -5.7060    6.8560  -17.4270 C   0  0  0  0  0  0  0  0  0  0  0  0
   -6.0880    5.6350  -16.8720 C   0  0  0  0  0  0  0  0  0  0  0  0
   -7.4300    5.0430  -17.1520 C   0  0  0  0  0  0  0  0  0  0  0  0
   -7.7260    4.6920  -18.4700 C   0  0  0  0  0  0  0  0  0  0  0  0
   -8.9340    4.1170  -18.8140 C   0  0  0  0  0  0  0  0  0  0  0  0
   -9.8830    3.8820  -17.8460 C   0  0  0  0  0  0  0  0  0  0  0  0
   -9.6200    4.2120  -16.5300 C   0  0  0  0  0  0  0  0  0  0  0  0
   -8.3990    4.7850  -16.1590 C   0  0  0  0  0  0  0  0  0  0  0  0
   -8.2020    5.1480  -14.7120 C   0  0  0  0  0  0  0  0  0  0  0  0
   -7.7250    6.2310  -14.4080 O   0  0  0  0  0  0  0  0  0  0  0  0
   -8.5830    4.2420  -13.7570 N   0  0  0  0  0  0  0  0  0  0  0  0
   -8.5360    4.5410  -12.3800 C   0  0  0  0  0  0  0  0  0  0  0  0
   -8.2890    5.8270  -11.8610 C   0  0  0  0  0  0  0  0  0  0  0  0
   -8.2920    5.8440  -10.5380 N   0  0  0  0  0  0  0  0  0  0  0  0
   -8.5500    4.5520  -10.1710 N   0  0  0  0  0  0  0  0  0  0  0  0
   -8.6030    4.2890   -8.7360 C   0  0  0  0  0  0  0  0  0  0  0  0
   -8.7000    3.7300  -11.2430 C   0  0  0  0  0  0  0  0  0  0  0  0
   -5.1660    4.9670  -16.0860 C   0  0  0  0  0  0  0  0  0  0  0  0
   -3.9250    5.5350  -15.8590 C   0  0  0  0  0  0  0  0  0  0  0  0
   -3.5640    6.7190  -16.3830 N   0  0  0  0  0  0  0  0  0  0  0  0
  1  2  1  0
  2  3  1  0
  3  4  1  0
  4  5  2  0
  5  6  1  0
  6  7  1  0
  7  8  2  0
  8  9  1  0
  9 10  2  0
 10 11  1  0
 11 12  2  0
 12 13  1  0
 13 14  2  0
 13 15  1  0
 15 16  1  0
 16 17  1  0
 17 18  2  0
 18 19  1  0
 19 20  1  0
 19 21  1  0
  6 22  2  0
 22 23  1  0
 23 24  2  0
  4 24  1  0
  7 12  1  0
 16 21  2  0
M  END

$$$$
