A71EV2A-x0202_A_201_1_A71EV2A-x0488+A+147+1
     RDKit          3D

 13 14  0  0  0  0  0  0  0  0999 V2000
   12.4510   -8.1940   32.1920 O   0  0  0  0  0  0  0  0  0  0  0  0
   12.0320   -7.1130   31.3630 S   0  0  0  0  0  0  0  0  0  0  0  0
   12.5750   -6.9360   30.0610 O   0  0  0  0  0  0  0  0  0  0  0  0
   10.4600   -7.1150   31.3010 N   0  0  0  0  0  0  0  0  0  0  0  0
   12.3580   -5.9720   32.6660 C   0  0  0  0  0  0  0  0  0  0  0  0
   13.5450   -5.7200   33.3300 N   0  0  0  0  0  0  0  0  0  0  0  0
   13.3280   -4.7340   34.2650 C   0  0  0  0  0  0  0  0  0  0  0  0
   12.0550   -4.3500   34.2780 N   0  0  0  0  0  0  0  0  0  0  0  0
   11.4480   -5.1000   33.3050 C   0  0  0  0  0  0  0  0  0  0  0  0
   14.7430   -6.3120   33.0610 N   0  0  0  0  0  0  0  0  0  0  0  0
   15.7520   -5.8560   33.7520 C   0  0  0  0  0  0  0  0  0  0  0  0
   15.6690   -4.8540   34.7290 C   0  0  0  0  0  0  0  0  0  0  0  0
   14.4490   -4.2950   34.9820 C   0  0  0  0  0  0  0  0  0  0  0  0
  4  2  1  0
  3  2  2  0
  2  1  2  0
  5  2  1  0
  5  9  2  0
  9  8  1  0
  8  7  2  0
  7 13  1  0
 13 12  2  0
 12 11  1  0
 11 10  2  0
 10  6  1  0
  6  5  1  0
  7  6  1  0
M  END

$$$$
