A71EV2A-x0497_A_147_1_A71EV2A-x0395+A+148+1
     RDKit          3D

 11 12  0  0  0  0  0  0  0  0999 V2000
   17.3940   -5.3070   20.1880 N   0  0  0  0  0  0  0  0  0  0  0  0
   17.4800   -5.9610   19.2480 C   0  0  0  0  0  0  0  0  0  0  0  0
   17.5960   -6.7450   18.0310 C   0  0  0  0  0  0  0  0  0  0  0  0
   18.6510   -6.7630   17.0570 C   0  0  0  0  0  0  0  0  0  0  0  0
   18.1720   -7.5840   16.0200 C   0  0  0  0  0  0  0  0  0  0  0  0
   16.9390   -8.0140   16.4060 N   0  0  0  0  0  0  0  0  0  0  0  0
   16.5770   -7.5110   17.6320 N   0  0  0  0  0  0  0  0  0  0  0  0
   19.9080   -6.1770   16.9200 C   0  0  0  0  0  0  0  0  0  0  0  0
   20.6450   -6.3920   15.7600 C   0  0  0  0  0  0  0  0  0  0  0  0
   20.1460   -7.1920   14.7380 C   0  0  0  0  0  0  0  0  0  0  0  0
   18.9060   -7.8030   14.8580 C   0  0  0  0  0  0  0  0  0  0  0  0
  2  1  3  0
  3  2  1  0
  3  7  2  0
  7  6  1  0
  6  5  1  0
  5 11  2  0
 11 10  1  0
 10  9  2  0
  9  8  1  0
  8  4  2  0
  4  3  1  0
  5  4  1  0
M  END

$$$$
