XX01ZVNS2B-x1761_B_301_XX01ZVNS2B-x1291+B+301+1
     RDKit          3D

 28 31  0  0  0  0  0  0  0  0999 V2000
   -3.7860    5.5410  -14.5780 C   0  0  0  0  0  0  0  0  0  0  0  0
   -4.8460    5.3530  -15.6210 C   0  0  0  0  0  0  0  0  0  0  0  0
   -4.5000    5.4050  -16.9870 C   0  0  0  0  0  0  0  0  0  0  0  0
   -5.4600    5.2440  -17.9480 C   0  0  0  0  0  0  0  0  0  0  0  0
   -5.0880    5.3000  -19.4100 C   0  0  0  0  0  0  0  0  0  0  0  0
   -3.7460    4.8820  -19.6640 O   0  0  0  0  0  0  0  0  0  0  0  0
   -6.8100    5.0160  -17.5340 C   0  0  0  0  0  0  0  0  0  0  0  0
   -7.8770    4.8240  -18.4490 C   0  0  0  0  0  0  0  0  0  0  0  0
   -9.1420    4.6060  -17.9980 C   0  0  0  0  0  0  0  0  0  0  0  0
   -9.3950    4.5690  -16.6130 C   0  0  0  0  0  0  0  0  0  0  0  0
   -8.3960    4.7480  -15.6890 C   0  0  0  0  0  0  0  0  0  0  0  0
   -8.7320    4.6940  -14.2040 C   0  0  0  0  0  0  0  0  0  0  0  0
   -8.8190    6.0440  -13.5090 C   0  0  0  0  0  0  0  0  0  0  0  0
   -9.6350    7.0420  -14.0360 C   0  0  0  0  0  0  0  0  0  0  0  0
   -9.7450    8.2780  -13.4290 C   0  0  0  0  0  0  0  0  0  0  0  0
   -9.0510    8.5380  -12.2690 C   0  0  0  0  0  0  0  0  0  0  0  0
   -8.2440    7.5630  -11.7130 C   0  0  0  0  0  0  0  0  0  0  0  0
   -8.1120    6.3090  -12.3290 C   0  0  0  0  0  0  0  0  0  0  0  0
   -7.2500    5.2660  -11.6830 C   0  0  0  0  0  0  0  0  0  0  0  0
   -6.1510    4.9590  -12.1470 O   0  0  0  0  0  0  0  0  0  0  0  0
   -7.7870    4.6120  -10.6370 N   0  0  0  0  0  0  0  0  0  0  0  0
   -8.1980    5.2800   -9.3910 C   0  0  0  0  0  0  0  0  0  0  0  0
   -8.7460    4.1690   -8.5210 C   0  0  0  0  0  0  0  0  0  0  0  0
   -8.2360    2.8700   -9.1500 C   0  0  1  0  0  0  0  0  0  0  0  0
   -9.1270    1.7490   -8.8530 N   0  0  0  0  0  0  0  0  0  0  0  0
   -8.1300    3.1820  -10.6350 C   0  0  0  0  0  0  0  0  0  0  0  0
   -7.0810    4.9710  -16.1340 C   0  0  0  0  0  0  0  0  0  0  0  0
   -6.0860    5.1440  -15.2050 N   0  0  0  0  0  0  0  0  0  0  0  0
  1  2  1  0
  2  3  2  0
  3  4  1  0
  4  5  1  0
  5  6  1  0
  4  7  2  0
  7  8  1  0
  8  9  2  0
  9 10  1  0
 10 11  2  0
 11 12  1  0
 12 13  1  0
 13 14  2  0
 14 15  1  0
 15 16  2  0
 16 17  1  0
 17 18  2  0
 18 19  1  0
 19 20  2  0
 19 21  1  0
 21 22  1  0
 22 23  1  0
 23 24  1  0
 24 25  1  6
 24 26  1  0
 11 27  1  0
 27 28  2  0
  2 28  1  0
  7 27  1  0
 13 18  1  0
 21 26  1  0
M  END
