A71EV2A-x0395_A_147_1_A71EV2A-x0395+A+148+1
     RDKit          3D

 16 16  0  0  0  0  0  0  0  0999 V2000
   10.4660   -9.2230   10.7250 O   0  0  0  0  0  0  0  0  0  0  0  0
   10.0720   -8.3640   11.5110 C   0  0  0  0  0  0  0  0  0  0  0  0
    8.8580   -7.7580   11.4120 N   0  0  0  0  0  0  0  0  0  0  0  0
    7.8440   -7.9830   10.3640 C   0  0  0  0  0  0  0  0  0  0  0  0
    8.3080   -8.9420    9.2710 C   0  0  0  0  0  0  0  0  0  0  0  0
    9.1840   -8.2430    8.3980 O   0  0  0  0  0  0  0  0  0  0  0  0
    7.5440   -6.6360    9.7170 C   0  0  0  0  0  0  0  0  0  0  0  0
    7.5080   -6.6730    8.2960 O   0  0  0  0  0  0  0  0  0  0  0  0
    6.5740   -8.5020   11.0240 C   0  0  0  0  0  0  0  0  0  0  0  0
   10.8030   -7.9640   12.5980 N   0  0  0  0  0  0  0  0  0  0  0  0
   12.1050   -8.3940   12.9580 C   0  0  0  0  0  0  0  0  0  0  0  0
   12.7630   -7.7010   13.9670 C   0  0  0  0  0  0  0  0  0  0  0  0
   14.0730   -8.0150   14.2810 C   0  0  0  0  0  0  0  0  0  0  0  0
   14.7320   -9.0200   13.6050 C   0  0  0  0  0  0  0  0  0  0  0  0
   14.0780   -9.7280   12.6210 C   0  0  0  0  0  0  0  0  0  0  0  0
   12.7670   -9.4250   12.2940 C   0  0  0  0  0  0  0  0  0  0  0  0
  9  4  1  0
  5  4  1  0
  6  5  1  0
  7  4  1  0
  8  7  1  0
  4  3  1  0
  3  2  1  0
  2  1  2  0
 10  2  1  0
 11 10  1  0
 11 16  2  0
 16 15  1  0
 15 14  2  0
 14 13  1  0
 13 12  2  0
 12 11  1  0
M  END
