A71EV2A-x0446_A_147_1_A71EV2A-x0526+A+147+1
     RDKit          3D

 10 10  0  0  0  0  0  0  0  0999 V2000
    9.4150   11.3410   24.8850 O   0  0  0  0  0  0  0  0  0  0  0  0
    8.4690   10.6070   24.6150 C   0  0  0  0  0  0  0  0  0  0  0  0
    8.5730    9.5450   23.8230 N   0  0  0  0  0  0  0  0  0  0  0  0
    9.7190    9.3340   22.9590 C   0  0  0  0  0  0  0  0  0  0  0  0
    7.1420   10.8680   25.2020 C   0  0  0  0  0  0  0  0  0  0  0  0
    6.8630   12.4960   25.7250 S   0  0  0  0  0  0  0  0  0  0  0  0
    5.3020   12.0160   26.3120 C   0  0  0  0  0  0  0  0  0  0  0  0
    4.3920   12.9830   26.9890 C   0  0  0  0  0  0  0  0  0  0  0  0
    5.0080   10.7610   26.1280 N   0  0  0  0  0  0  0  0  0  0  0  0
    6.0490   10.1200   25.4980 C   0  0  0  0  0  0  0  0  0  0  0  0
  4  3  1  0
  3  2  1  0
  2  1  2  0
  5  2  1  0
  5 10  2  0
 10  9  1  0
  9  7  2  0
  8  7  1  0
  7  6  1  0
  6  5  1  0
M  END

$$$$
