A71EV2A-x1180_A_151_1_A71EV2A-x0526+A+147+1
     RDKit          3D

  6  6  0  0  0  0  0  0  0  0999 V2000
    2.2520   12.8360   18.2220 Cl  0  0  0  0  0  0  0  0  0  0  0  0
    2.7940   11.6440   19.3620 C   0  0  0  0  0  0  0  0  0  0  0  0
    3.9230   10.8920   19.2160 N   0  0  0  0  0  0  0  0  0  0  0  0
    3.9480   10.0530   20.2410 C   0  0  0  0  0  0  0  0  0  0  0  0
    2.8960   10.2240   21.0590 N   0  0  0  0  0  0  0  0  0  0  0  0
    2.1370   11.2410   20.5480 C   0  0  0  0  0  0  0  0  0  0  0  0
  2  1  1  0
  2  6  2  0
  6  5  1  0
  5  4  1  0
  4  3  2  0
  3  2  1  0
M  END

$$$$
