XX01ZVNS2B-x1682_B_301_XX01ZVNS2B-x1291+B+301+1
     RDKit          3D

 16 17  0  0  0  0  0  0  0  0999 V2000
   -6.1860    4.9240  -20.3090 N   0  0  0  0  0  0  0  0  0  0  0  0
   -6.0260    4.9040  -18.9350 C   0  0  0  0  0  0  0  0  0  0  0  0
   -4.7750    5.1360  -18.3870 C   0  0  0  0  0  0  0  0  0  0  0  0
   -4.6460    5.1100  -16.9900 C   0  0  0  0  0  0  0  0  0  0  0  0
   -5.6270    4.8760  -16.1430 N   0  0  0  0  0  0  0  0  0  0  0  0
   -6.8780    4.6440  -16.6490 C   0  0  0  0  0  0  0  0  0  0  0  0
   -7.9630    4.3990  -15.7550 C   0  0  0  0  0  0  0  0  0  0  0  0
   -9.2140    4.1490  -16.2400 C   0  0  0  0  0  0  0  0  0  0  0  0
   -9.4550    4.1550  -17.6230 C   0  0  0  0  0  0  0  0  0  0  0  0
   -8.4450    4.3930  -18.5020 C   0  0  0  0  0  0  0  0  0  0  0  0
   -7.1300    4.6450  -18.0510 C   0  0  0  0  0  0  0  0  0  0  0  0
   -7.6550    4.3900  -14.4150 O   0  0  0  0  0  0  0  0  0  0  0  0
   -7.7860    5.6020  -13.6700 C   0  0  0  0  0  0  0  0  0  0  0  0
   -7.1290    6.6130  -14.2130 F   0  0  0  0  0  0  0  0  0  0  0  0
   -9.0500    5.9700  -13.5510 F   0  0  0  0  0  0  0  0  0  0  0  0
   -7.2950    5.4620  -12.4510 F   0  0  0  0  0  0  0  0  0  0  0  0
  1  2  1  0
  2  3  2  0
  3  4  1  0
  4  5  2  0
  5  6  1  0
  6  7  2  0
  7  8  1  0
  8  9  2  0
  9 10  1  0
 10 11  2  0
  7 12  1  0
 12 13  1  0
 13 14  1  0
 13 15  1  0
 13 16  1  0
  2 11  1  0
  6 11  1  0
M  END

$$$$
