A71EV2A-x0450_A_201_1_A71EV2A-x0526+A+147+1
     RDKit          3D

 13 13  0  0  0  0  0  0  0  0999 V2000
    7.9320   14.3000   25.6240 Br  0  0  0  0  0  0  0  0  0  0  0  0
    7.8620   12.4250   25.3670 C   0  0  0  0  0  0  0  0  0  0  0  0
    8.7960   11.8420   24.5210 C   0  0  0  0  0  0  0  0  0  0  0  0
    8.7340   10.4810   24.3400 C   0  0  0  0  0  0  0  0  0  0  0  0
    9.6690    9.8820   23.5520 F   0  0  0  0  0  0  0  0  0  0  0  0
    7.7960    9.6930   24.9370 C   0  0  0  0  0  0  0  0  0  0  0  0
    6.8710   10.2900   25.7740 C   0  0  0  0  0  0  0  0  0  0  0  0
    6.8910   11.6620   26.0120 C   0  0  0  0  0  0  0  0  0  0  0  0
    5.9330   12.2450   27.0150 C   0  0  0  0  0  0  0  0  0  0  0  0
    6.0670   11.9380   28.1860 O   0  0  0  0  0  0  0  0  0  0  0  0
    4.9730   13.0870   26.5950 N   0  0  0  0  0  0  0  0  0  0  0  0
    4.0230   13.6480   27.5590 C   0  0  0  0  0  0  0  0  0  0  0  0
    4.7680   13.5590   25.2250 C   0  0  0  0  0  0  0  0  0  0  0  0
 13 11  1  0
 12 11  1  0
 11  9  1  0
 10  9  2  0
  9  8  1  0
  8  7  2  0
  7  6  1  0
  6  4  2  0
  5  4  1  0
  4  3  1  0
  3  2  2  0
  8  2  1  0
  2  1  1  0
M  END
