A71EV2A-x1105_A_147_1_A71EV2A-x0395+A+148+1
     RDKit          3D

 12 13  0  0  0  0  0  0  0  0999 V2000
    8.5500   -9.3230   10.0430 C   0  0  0  0  0  0  0  0  0  0  0  0
    7.7030   -8.9930    9.0010 C   0  0  0  0  0  0  0  0  0  0  0  0
    7.2940   -7.7450    8.7410 N   0  0  0  0  0  0  0  0  0  0  0  0
    7.6770   -6.8040    9.6050 C   0  0  0  0  0  0  0  0  0  0  0  0
    8.4880   -7.0460   10.6990 C   0  0  0  0  0  0  0  0  0  0  0  0
    8.9970   -8.3230   10.9060 C   0  0  0  0  0  0  0  0  0  0  0  0
   10.1340   -8.5590   11.8550 C   0  0  0  0  0  0  0  0  0  0  0  0
   10.5280   -7.5800   12.7720 C   0  0  0  0  0  0  0  0  0  0  0  0
   11.6480   -7.7620   13.5690 C   0  0  0  0  0  0  0  0  0  0  0  0
   10.9010   -9.7210   11.7850 C   0  0  0  0  0  0  0  0  0  0  0  0
   12.0220   -9.8880   12.5850 C   0  0  0  0  0  0  0  0  0  0  0  0
   12.3880   -8.9180   13.4770 C   0  0  0  0  0  0  0  0  0  0  0  0
 12  9  1  0
  9  8  2  0
  8  7  1  0
 10  7  2  0
 11 10  1  0
 12 11  2  0
  7  6  1  0
  6  5  2  0
  5  4  1  0
  4  3  2  0
  3  2  1  0
  2  1  2  0
  6  1  1  0
M  END
