A71EV2A-x0926_A_250_1_A71EV2A-x0526+A+147+1
     RDKit          3D

 14 14  0  0  0  0  0  0  0  0999 V2000
    9.5830   16.4380   19.6530 O   0  0  0  0  0  0  0  0  0  0  0  0
    9.9710   15.2800   19.8130 C   0  0  0  0  0  0  0  0  0  0  0  0
   10.3380   14.5040   18.8070 N   0  0  0  0  0  0  0  0  0  0  0  0
   10.0110   14.6480   21.1930 C   0  0  1  0  0  0  0  0  0  0  0  0
   11.1010   15.2730   22.0740 C   0  0  0  0  0  0  0  0  0  0  0  0
   11.1170   14.6050   23.4430 C   0  0  0  0  0  0  0  0  0  0  0  0
    9.7600   14.7300   24.0750 C   0  0  0  0  0  0  0  0  0  0  0  0
    8.6660   14.7820   21.9040 C   0  0  0  0  0  0  0  0  0  0  0  0
    8.7520   14.1180   23.2050 N   0  0  0  0  0  0  0  0  0  0  0  0
    8.0280   13.0380   23.5580 C   0  0  0  0  0  0  0  0  0  0  0  0
    7.0660   12.6630   22.9050 O   0  0  0  0  0  0  0  0  0  0  0  0
    8.5030   12.2940   24.7970 C   0  0  0  0  0  0  0  0  0  0  0  0
    7.7420   11.1400   25.1340 O   0  0  0  0  0  0  0  0  0  0  0  0
    6.4580   11.4460   25.6750 C   0  0  0  0  0  0  0  0  0  0  0  0
 14 13  1  0
 13 12  1  0
 12 10  1  0
 11 10  2  0
 10  9  1  0
  9  7  1  0
  7  6  1  0
  6  5  1  0
  5  4  1  0
  8  4  1  0
  9  8  1  0
  4  2  1  6
  2  1  2  0
  3  2  1  0
M  END
