XX01ZVNS2B-x2500_B_301_XX01ZVNS2B-x1291+B+301+1
     RDKit          3D

 27 30  0  0  0  0  0  0  0  0999 V2000
   -3.0420    4.1160  -14.4630 C   0  0  0  0  0  0  0  0  0  0  0  0
   -4.2680    3.9890  -13.7190 O   0  0  0  0  0  0  0  0  0  0  0  0
   -5.4230    4.4160  -14.2700 C   0  0  0  0  0  0  0  0  0  0  0  0
   -6.5290    4.4120  -13.4510 C   0  0  0  0  0  0  0  0  0  0  0  0
   -7.7430    4.8130  -13.9830 C   0  0  0  0  0  0  0  0  0  0  0  0
   -8.9920    4.9120  -13.1450 C   0  0  0  0  0  0  0  0  0  0  0  0
   -8.6070    5.2870  -11.7300 C   0  0  0  0  0  0  0  0  0  0  0  0
   -8.0520    6.5250  -11.4480 C   0  0  0  0  0  0  0  0  0  0  0  0
   -7.6930    6.8170  -10.1520 C   0  0  0  0  0  0  0  0  0  0  0  0
   -7.8600    5.9560   -9.1350 N   0  0  0  0  0  0  0  0  0  0  0  0
   -8.3930    4.7450   -9.3920 C   0  0  0  0  0  0  0  0  0  0  0  0
   -8.6420    3.9310   -8.3180 N   0  0  0  0  0  0  0  0  0  0  0  0
   -9.4990    2.7510   -8.4250 C   0  0  0  0  0  0  0  0  0  0  0  0
   -8.8690    1.5280   -7.7850 C   0  0  0  0  0  0  0  0  0  0  0  0
   -8.0610    1.8390   -6.6010 N   0  0  0  0  0  0  0  0  0  0  0  0
   -8.4550    3.1070   -5.9910 C   0  0  0  0  0  0  0  0  0  0  0  0
   -8.1850    4.2430   -6.9580 C   0  0  0  0  0  0  0  0  0  0  0  0
   -8.7870    4.3910  -10.6920 C   0  0  0  0  0  0  0  0  0  0  0  0
   -7.8440    5.1620  -15.2690 N   0  0  0  0  0  0  0  0  0  0  0  0
   -6.7210    5.1450  -16.0190 C   0  0  0  0  0  0  0  0  0  0  0  0
   -6.8270    5.4600  -17.3240 N   0  0  0  0  0  0  0  0  0  0  0  0
   -8.0690    5.2750  -18.0750 C   0  0  0  0  0  0  0  0  0  0  0  0
   -7.8090    4.4870  -19.3440 C   0  0  0  0  0  0  0  0  0  0  0  0
   -6.6450    4.9750  -20.0990 N   0  0  0  0  0  0  0  0  0  0  0  0
   -6.0750    6.2090  -19.5520 C   0  0  0  0  0  0  0  0  0  0  0  0
   -5.7230    6.0490  -18.0840 C   0  0  0  0  0  0  0  0  0  0  0  0
   -5.5180    4.7350  -15.5590 N   0  0  0  0  0  0  0  0  0  0  0  0
  1  2  1  0
  2  3  1  0
  3  4  2  0
  4  5  1  0
  5  6  1  0
  6  7  1  0
  7  8  2  0
  8  9  1  0
  9 10  2  0
 10 11  1  0
 11 12  1  0
 12 13  1  0
 13 14  1  0
 14 15  1  0
 15 16  1  0
 16 17  1  0
 11 18  2  0
  5 19  2  0
 19 20  1  0
 20 21  1  0
 21 22  1  0
 22 23  1  0
 23 24  1  0
 24 25  1  0
 25 26  1  0
 20 27  2  0
  3 27  1  0
  7 18  1  0
 21 26  1  0
 12 17  1  0
M  END
