XX01ZVNS2B-x0605_B_301_XX01ZVNS2B-x1291+B+301+1
     RDKit          3D

  9  9  0  0  0  0  0  0  0  0999 V2000
  -11.0050    4.1640  -18.5370 C   0  0  0  0  0  0  0  0  0  0  0  0
  -10.2680    4.4460  -17.5110 C   0  0  0  0  0  0  0  0  0  0  0  0
   -8.7970    4.5500  -17.4880 C   0  0  0  0  0  0  0  0  0  0  0  0
   -8.0850    4.6970  -18.6720 C   0  0  0  0  0  0  0  0  0  0  0  0
   -6.7080    4.8460  -18.6560 C   0  0  0  0  0  0  0  0  0  0  0  0
   -6.0340    4.8450  -17.4570 C   0  0  0  0  0  0  0  0  0  0  0  0
   -8.0490    4.5480  -16.2750 C   0  0  0  0  0  0  0  0  0  0  0  0
   -6.7070    4.6980  -16.2960 N   0  0  0  0  0  0  0  0  0  0  0  0
   -5.9640    4.7020  -15.0180 C   0  0  0  0  0  0  0  0  0  0  0  0
  9  8  1  0
  8  6  1  0
  6  5  2  0
  5  4  1  0
  4  3  2  0
  3  2  1  0
  2  1  2  0
  7  3  1  0
  8  7  2  0
M  CHG  1   8   1
M  END
