A71EV2A-x0211_A_301_1_A71EV2A-x0541+A+147+1
     RDKit          3D

 14 14  0  0  0  0  0  0  0  0999 V2000
    6.9110   10.1040    2.5200 F   0  0  0  0  0  0  0  0  0  0  0  0
    7.6270   11.0540    3.1110 C   0  0  0  0  0  0  0  0  0  0  0  0
    7.8850   10.9850    4.4120 F   0  0  0  0  0  0  0  0  0  0  0  0
    6.8780   12.1880    3.1540 O   0  0  0  0  0  0  0  0  0  0  0  0
    7.6570   13.2310    2.7410 C   0  0  0  0  0  0  0  0  0  0  0  0
    7.7940   14.3060    3.6290 C   0  0  0  0  0  0  0  0  0  0  0  0
    6.7740   14.5060    5.0720 S   0  0  0  0  0  0  0  0  0  0  0  0
    6.8630   13.3690    5.9100 O   0  0  0  0  0  0  0  0  0  0  0  0
    7.0980   15.7810    5.6240 O   0  0  0  0  0  0  0  0  0  0  0  0
    5.2500   14.5800    4.5620 N   0  0  0  0  0  0  0  0  0  0  0  0
    8.3960   13.2210    1.5700 C   0  0  0  0  0  0  0  0  0  0  0  0
    9.3100   14.2270    1.3150 C   0  0  0  0  0  0  0  0  0  0  0  0
    9.4630   15.2670    2.2000 C   0  0  0  0  0  0  0  0  0  0  0  0
    8.6970   15.3250    3.3550 C   0  0  0  0  0  0  0  0  0  0  0  0
 10  7  1  0
  8  7  2  0
  9  7  2  0
  7  6  1  0
  6 14  2  0
 14 13  1  0
 13 12  2  0
 12 11  1  0
 11  5  2  0
  6  5  1  0
  5  4  1  0
  4  2  1  0
  3  2  1  0
  2  1  1  0
M  END
