XX01ZVNS2B-x1716_B_301_XX01ZVNS2B-x1291+B+301+1
     RDKit          3D

 18 19  0  0  0  0  0  0  0  0999 V2000
   -5.2540    8.6200  -13.5650 C   0  0  0  0  0  0  0  0  0  0  0  0
   -4.4110    7.8370  -12.6310 C   0  0  0  0  0  0  0  0  0  0  0  0
   -3.9510    6.6290  -13.3160 O   0  0  0  0  0  0  0  0  0  0  0  0
   -4.7340    5.5460  -13.2400 C   0  0  0  0  0  0  0  0  0  0  0  0
   -4.8120    4.8410  -12.2640 O   0  0  0  0  0  0  0  0  0  0  0  0
   -5.5060    5.3030  -14.4910 C   0  0  0  0  0  0  0  0  0  0  0  0
   -4.8340    5.3440  -15.7390 C   0  0  0  0  0  0  0  0  0  0  0  0
   -5.4230    5.1440  -16.8980 N   0  0  0  0  0  0  0  0  0  0  0  0
   -6.7680    4.8790  -16.9140 C   0  0  0  0  0  0  0  0  0  0  0  0
   -7.4070    4.6610  -18.1680 C   0  0  0  0  0  0  0  0  0  0  0  0
   -8.7580    4.3880  -18.2150 C   0  0  0  0  0  0  0  0  0  0  0  0
   -9.5220    4.3230  -17.0300 C   0  0  0  0  0  0  0  0  0  0  0  0
   -8.9280    4.5280  -15.8190 C   0  0  0  0  0  0  0  0  0  0  0  0
   -7.5470    4.8100  -15.7200 C   0  0  0  0  0  0  0  0  0  0  0  0
   -6.8900    5.0290  -14.4750 C   0  0  0  0  0  0  0  0  0  0  0  0
   -7.5910    4.9740  -13.2960 N   0  0  0  0  0  0  0  0  0  0  0  0
   -6.6390    4.7280  -19.3850 C   0  0  0  0  0  0  0  0  0  0  0  0
   -6.0650    4.7970  -20.3750 N   0  0  0  0  0  0  0  0  0  0  0  0
  1  2  1  0
  2  3  1  0
  3  4  1  0
  4  5  2  0
  4  6  1  0
  6  7  2  0
  7  8  1  0
  8  9  2  0
  9 10  1  0
 10 11  2  0
 11 12  1  0
 12 13  2  0
 13 14  1  0
 14 15  2  0
 15 16  1  0
 10 17  1  0
 17 18  3  0
  6 15  1  0
  9 14  1  0
M  END
