A71EV2A-x0884_A_147_1_A71EV2A-x0526+A+147+1
     RDKit          3D

 14 14  0  0  0  0  0  0  0  0999 V2000
   11.8290   14.4980   22.4620 O   0  0  0  0  0  0  0  0  0  0  0  0
   11.0520   13.9240   23.2460 C   0  0  0  0  0  0  0  0  0  0  0  0
   10.9580   14.2620   24.5260 N   0  0  0  0  0  0  0  0  0  0  0  0
   10.2850   12.8540   22.8560 N   0  0  0  0  0  0  0  0  0  0  0  0
    9.3490   12.0950   23.6060 C   0  0  0  0  0  0  0  0  0  0  0  0
    9.3410   10.7170   23.4350 C   0  0  0  0  0  0  0  0  0  0  0  0
    8.3930    9.9480   24.0890 C   0  0  0  0  0  0  0  0  0  0  0  0
    7.4550   10.5390   24.9210 C   0  0  0  0  0  0  0  0  0  0  0  0
    8.4160   12.6900   24.4560 C   0  0  0  0  0  0  0  0  0  0  0  0
    7.4800   11.9120   25.1300 C   0  0  0  0  0  0  0  0  0  0  0  0
    6.6330   12.5990   26.0450 N   0  0  0  0  0  0  0  0  0  0  0  0
    5.5990   12.1370   26.8000 C   0  0  0  0  0  0  0  0  0  0  0  0
    4.5670   12.7800   26.9770 O   0  0  0  0  0  0  0  0  0  0  0  0
    5.8220   10.8090   27.4660 C   0  0  0  0  0  0  0  0  0  0  0  0
 14 12  1  0
 13 12  2  0
 12 11  1  0
 11 10  1  0
 10  8  1  0
  8  7  2  0
  7  6  1  0
  6  5  2  0
  5  4  1  0
  4  2  1  0
  2  1  2  0
  3  2  1  0
  9  5  1  0
 10  9  2  0
M  END
