XX01ZVNS2B-x0806_B_301_XX01ZVNS2B-x1291+B+301+1
     RDKit          3D

 14 15  0  0  0  0  0  0  0  0999 V2000
   -4.3050    6.4380  -23.3720 N   0  0  0  0  0  0  0  0  0  0  0  0
   -4.3020    7.8850  -23.6200 C   0  0  1  0  0  0  0  0  0  0  0  0
   -2.9050    8.3200  -24.0490 C   0  0  0  0  0  0  0  0  0  0  0  0
   -5.2430    8.1150  -24.7680 C   0  0  0  0  0  0  0  0  0  0  0  0
   -5.0240    7.4860  -25.9540 N   0  0  0  0  0  0  0  0  0  0  0  0
   -6.0050    7.7700  -26.7780 N   0  0  0  0  0  0  0  0  0  0  0  0
   -6.8680    8.5680  -26.1100 N   0  0  0  0  0  0  0  0  0  0  0  0
   -6.4050    8.8250  -24.8670 C   0  0  0  0  0  0  0  0  0  0  0  0
   -8.1530    8.8360  -26.6650 C   0  0  0  0  0  0  0  0  0  0  0  0
   -8.7270   10.0900  -26.5130 C   0  0  0  0  0  0  0  0  0  0  0  0
  -10.0310   10.2930  -26.9250 C   0  0  0  0  0  0  0  0  0  0  0  0
  -10.7530    9.2650  -27.4920 C   0  0  0  0  0  0  0  0  0  0  0  0
  -10.1650    8.0340  -27.6850 C   0  0  0  0  0  0  0  0  0  0  0  0
   -8.8620    7.8120  -27.2760 C   0  0  0  0  0  0  0  0  0  0  0  0
  2  3  1  6
  2  1  1  0
  4  2  1  0
  4  8  2  0
  8  7  1  0
  7  6  1  0
  6  5  2  0
  5  4  1  0
  9  7  1  0
  9 14  2  0
 14 13  1  0
 13 12  2  0
 12 11  1  0
 11 10  2  0
 10  9  1  0
M  END
