A71EV2A-x0387_A_151_1_A71EV2A-x0526+A+147+1
     RDKit          3D

 15 15  0  0  0  0  0  0  0  0999 V2000
    8.2610   14.5390   26.2290 O   0  0  0  0  0  0  0  0  0  0  0  0
    7.1310   14.4710   25.7620 C   0  0  0  0  0  0  0  0  0  0  0  0
    6.1690   15.6370   25.8900 C   0  0  0  0  0  0  0  0  0  0  0  0
    6.0830   16.1270   27.2210 O   0  0  0  0  0  0  0  0  0  0  0  0
    7.3260   16.4810   27.8090 C   0  0  0  0  0  0  0  0  0  0  0  0
    6.6760   13.4120   25.0710 N   0  0  0  0  0  0  0  0  0  0  0  0
    7.4790   12.2800   24.7420 C   0  0  0  0  0  0  0  0  0  0  0  0
    8.5530   12.4320   23.8550 C   0  0  0  0  0  0  0  0  0  0  0  0
    8.9640   13.7760   23.3050 C   0  0  0  0  0  0  0  0  0  0  0  0
    9.2000   11.2890   23.4040 C   0  0  0  0  0  0  0  0  0  0  0  0
    8.8040   10.0170   23.7860 C   0  0  0  0  0  0  0  0  0  0  0  0
    9.4630    8.7970   23.1930 C   0  0  0  0  0  0  0  0  0  0  0  0
    7.7510    9.9020   24.6840 C   0  0  0  0  0  0  0  0  0  0  0  0
    7.0840   11.0140   25.1910 C   0  0  0  0  0  0  0  0  0  0  0  0
    5.9610   10.8310   26.1790 C   0  0  0  0  0  0  0  0  0  0  0  0
  5  4  1  0
  4  3  1  0
  3  2  1  0
  2  1  2  0
  6  2  1  0
  7  6  1  0
  7 14  2  0
 15 14  1  0
 14 13  1  0
 13 11  2  0
 12 11  1  0
 11 10  1  0
 10  8  2  0
  8  7  1  0
  9  8  1  0
M  END

$$$$
