A71EV2A-x0228_A_147_1_A71EV2A-x0540+A+147+1
     RDKit          3D

 11 11  0  0  0  0  0  0  0  0999 V2000
   14.1130   21.1480   25.1450 O   0  0  0  0  0  0  0  0  0  0  0  0
   13.2740   22.1980   24.6690 S   0  0  0  0  0  0  0  0  0  0  0  0
   12.9340   22.2440   23.2870 O   0  0  0  0  0  0  0  0  0  0  0  0
   13.9750   23.7350   25.1290 C   0  0  0  0  0  0  0  0  0  0  0  0
   11.8950   22.0430   25.4520 N   0  0  0  0  0  0  0  0  0  0  0  0
   10.8640   22.9820   25.0340 C   0  0  0  0  0  0  0  0  0  0  0  0
    9.4820   22.5320   25.4660 C   0  0  0  0  0  0  0  0  0  0  0  0
    9.4340   22.1630   26.9280 C   0  0  0  0  0  0  0  0  0  0  0  0
    8.2220   21.4400   27.0670 O   0  0  0  0  0  0  0  0  0  0  0  0
   10.6190   21.3260   27.3900 C   0  0  0  0  0  0  0  0  0  0  0  0
   11.9530   21.9230   26.9200 C   0  0  0  0  0  0  0  0  0  0  0  0
  4  2  1  0
  3  2  2  0
  2  1  2  0
  5  2  1  0
  5 11  1  0
 11 10  1  0
 10  8  1  0
  9  8  1  0
  8  7  1  0
  7  6  1  0
  6  5  1  0
M  END

$$$$
