XX01ZVNS2B-x0386_B_301_XX01ZVNS2B-x1291+B+301+1
     RDKit          3D

  7  7  0  0  0  0  0  0  0  0999 V2000
   -6.6380    5.3270  -20.0420 N   0  0  0  0  0  0  0  0  0  0  0  0
   -6.6530    5.2540  -18.5860 C   0  0  0  0  0  0  0  0  0  0  0  0
   -7.9350    4.7360  -18.0180 C   0  0  0  0  0  0  0  0  0  0  0  0
   -9.0230    4.4060  -18.8120 N   0  0  0  0  0  0  0  0  0  0  0  0
   -9.9200    4.0410  -17.9720 C   0  0  0  0  0  0  0  0  0  0  0  0
   -9.5450    4.0720  -16.6780 O   0  0  0  0  0  0  0  0  0  0  0  0
   -8.2590    4.5240  -16.7370 C   0  0  0  0  0  0  0  0  0  0  0  0
  2  1  1  0
  3  2  1  0
  3  7  2  0
  7  6  1  0
  6  5  1  0
  5  4  2  0
  4  3  1  0
M  END

$$$$
