XX01ZVNS2B-x1470_B_301_XX01ZVNS2B-x1291+B+301+1
     RDKit          3D

 22 24  0  0  0  0  0  0  0  0999 V2000
   -7.6720    0.9710  -14.2560 C   0  0  0  0  0  0  0  0  0  0  0  0
   -8.3480    1.9160  -15.0960 O   0  0  0  0  0  0  0  0  0  0  0  0
   -8.2010    3.2020  -14.7570 C   0  0  0  0  0  0  0  0  0  0  0  0
   -7.7470    4.1770  -15.6140 C   0  0  0  0  0  0  0  0  0  0  0  0
   -7.6130    5.4520  -15.1280 C   0  0  0  0  0  0  0  0  0  0  0  0
   -7.1160    6.5830  -15.9790 C   0  0  0  0  0  0  0  0  0  0  0  0
   -5.9800    6.0920  -16.6900 O   0  0  0  0  0  0  0  0  0  0  0  0
   -5.9990    6.0840  -18.0620 C   0  0  0  0  0  0  0  0  0  0  0  0
   -4.8290    6.3600  -18.7420 C   0  0  0  0  0  0  0  0  0  0  0  0
   -4.7920    6.3620  -20.0740 N   0  0  0  0  0  0  0  0  0  0  0  0
   -5.9320    6.0880  -20.6980 C   0  0  0  0  0  0  0  0  0  0  0  0
   -7.0990    5.8040  -20.1300 N   0  0  0  0  0  0  0  0  0  0  0  0
   -7.1320    5.8010  -18.7990 C   0  0  0  0  0  0  0  0  0  0  0  0
   -7.9020    5.7340  -13.8460 N   0  0  0  0  0  0  0  0  0  0  0  0
   -8.3360    4.7180  -13.0620 C   0  0  0  0  0  0  0  0  0  0  0  0
   -8.6310    4.9390  -11.7560 N   0  0  0  0  0  0  0  0  0  0  0  0
   -9.4190    3.9730  -10.9890 C   0  0  0  0  0  0  0  0  0  0  0  0
   -8.8120    3.6740   -9.6320 C   0  0  0  0  0  0  0  0  0  0  0  0
   -7.9540    4.7570   -9.1630 N   0  0  0  0  0  0  0  0  0  0  0  0
   -8.4780    6.0530   -9.5830 C   0  0  0  0  0  0  0  0  0  0  0  0
   -8.3790    6.2140  -11.0870 C   0  0  0  0  0  0  0  0  0  0  0  0
   -8.4880    3.4570  -13.4930 N   0  0  0  0  0  0  0  0  0  0  0  0
  1  2  1  0
  2  3  1  0
  3  4  2  0
  4  5  1  0
  5  6  1  0
  6  7  1  0
  7  8  1  0
  8  9  2  0
  9 10  1  0
 10 11  2  0
 11 12  1  0
 12 13  2  0
  5 14  2  0
 14 15  1  0
 15 16  1  0
 16 17  1  0
 17 18  1  0
 18 19  1  0
 19 20  1  0
 20 21  1  0
 15 22  2  0
  3 22  1  0
  8 13  1  0
 16 21  1  0
M  END
