XX01ZVNS2B-x0425_B_301_XX01ZVNS2B-x1291+B+301+1
     RDKit          3D

 11 11  0  0  0  0  0  0  0  0999 V2000
   -2.7060    4.9870  -17.0120 N   0  0  0  0  0  0  0  0  0  0  0  0
   -3.9990    5.1760  -16.3570 C   0  0  0  0  0  0  0  0  0  0  0  0
   -5.1340    5.1650  -17.3580 C   0  0  0  0  0  0  0  0  0  0  0  0
   -6.4390    4.9210  -16.9420 C   0  0  0  0  0  0  0  0  0  0  0  0
   -4.9130    5.4000  -18.7070 C   0  0  0  0  0  0  0  0  0  0  0  0
   -5.9850    5.3910  -19.5800 C   0  0  0  0  0  0  0  0  0  0  0  0
   -7.2510    5.1530  -19.2030 N   0  0  0  0  0  0  0  0  0  0  0  0
   -7.4670    4.9160  -17.8980 C   0  0  0  0  0  0  0  0  0  0  0  0
   -8.7490    4.6350  -17.5140 N   0  0  0  0  0  0  0  0  0  0  0  0
   -9.7940    4.3200  -18.4790 C   0  0  0  0  0  0  0  0  0  0  0  0
   -9.1360    4.6090  -16.1100 C   0  0  0  0  0  0  0  0  0  0  0  0
 11  9  1  0
 10  9  1  0
  9  8  1  0
  8  4  1  0
  4  3  2  0
  3  2  1  0
  2  1  1  0
  5  3  1  0
  6  5  2  0
  7  6  1  0
  8  7  2  0
M  END
