A71EV2A-x0719_A_301_1_A71EV2A-x0526+A+147+1
     RDKit          3D

 13 13  0  0  0  0  0  0  0  0999 V2000
    6.8840   13.2580   22.2060 O   0  0  0  0  0  0  0  0  0  0  0  0
    6.8320   14.6330   22.5840 S   0  0  0  0  0  0  0  0  0  0  0  0
    7.9310   15.5000   22.3060 O   0  0  0  0  0  0  0  0  0  0  0  0
    5.4930   15.2890   21.9980 N   0  0  0  0  0  0  0  0  0  0  0  0
    6.4630   14.6940   24.3170 C   0  0  0  0  0  0  0  0  0  0  0  0
    7.5470   14.1430   25.2600 C   0  0  1  0  0  0  0  0  0  0  0  0
    7.0580   14.2760   26.7000 C   0  0  0  0  0  0  0  0  0  0  0  0
    8.0110   12.7250   24.9390 C   0  0  0  0  0  0  0  0  0  0  0  0
    9.1120   12.5060   24.1210 C   0  0  0  0  0  0  0  0  0  0  0  0
    9.5150   11.2180   23.7980 C   0  0  0  0  0  0  0  0  0  0  0  0
    8.8450   10.1320   24.3220 C   0  0  0  0  0  0  0  0  0  0  0  0
    7.7610   10.3370   25.1490 C   0  0  0  0  0  0  0  0  0  0  0  0
    7.3390   11.6200   25.4410 C   0  0  0  0  0  0  0  0  0  0  0  0
  6  7  1  1
  6  5  1  0
  5  2  1  0
  3  2  2  0
  2  1  2  0
  4  2  1  0
  8  6  1  0
  8 13  2  0
 13 12  1  0
 12 11  2  0
 11 10  1  0
 10  9  2  0
  9  8  1  0
M  END

$$$$
