XX01ZVNS2B-x1274_B_301_XX01ZVNS2B-x1291+B+301+1
     RDKit          3D

 21 23  0  0  0  0  0  0  0  0999 V2000
   -8.4360    6.7720  -11.7140 C   0  0  0  0  0  0  0  0  0  0  0  0
   -8.4840    5.3920  -11.1020 C   0  0  0  0  0  0  0  0  0  0  0  0
   -8.4880    5.2520   -9.7230 C   0  0  0  0  0  0  0  0  0  0  0  0
   -8.5340    4.0580   -9.1020 N   0  0  0  0  0  0  0  0  0  0  0  0
   -8.5690    2.9700   -9.8760 C   0  0  0  0  0  0  0  0  0  0  0  0
   -8.5630    3.0060  -11.2440 C   0  0  0  0  0  0  0  0  0  0  0  0
   -8.5120    4.2340  -11.8880 C   0  0  0  0  0  0  0  0  0  0  0  0
   -8.5230    4.3120  -13.3250 N   0  0  0  0  0  0  0  0  0  0  0  0
   -7.5460    4.7800  -14.1460 C   0  0  0  0  0  0  0  0  0  0  0  0
   -6.5420    5.3290  -13.7000 O   0  0  0  0  0  0  0  0  0  0  0  0
   -7.7280    4.5910  -15.6310 C   0  0  0  0  0  0  0  0  0  0  0  0
   -8.9580    4.1980  -16.1590 C   0  0  0  0  0  0  0  0  0  0  0  0
   -9.1240    4.0210  -17.5200 C   0  0  0  0  0  0  0  0  0  0  0  0
   -8.0670    4.2320  -18.3850 C   0  0  0  0  0  0  0  0  0  0  0  0
   -6.8260    4.6320  -17.8970 C   0  0  0  0  0  0  0  0  0  0  0  0
   -5.7090    4.8310  -18.8330 C   0  0  0  0  0  0  0  0  0  0  0  0
   -5.8420    4.8670  -20.1430 N   0  0  0  0  0  0  0  0  0  0  0  0
   -4.6140    4.9160  -20.7450 C   0  0  0  0  0  0  0  0  0  0  0  0
   -3.5870    5.1590  -19.9280 C   0  0  0  0  0  0  0  0  0  0  0  0
   -4.0620    4.9710  -18.2970 S   0  0  0  0  0  0  0  0  0  0  0  0
   -6.6660    4.8000  -16.5150 C   0  0  0  0  0  0  0  0  0  0  0  0
  1  2  1  0
  2  3  2  0
  3  4  1  0
  4  5  2  0
  5  6  1  0
  6  7  2  0
  7  8  1  0
  8  9  1  0
  9 10  2  0
  9 11  1  0
 11 12  2  0
 12 13  1  0
 13 14  2  0
 14 15  1  0
 15 16  1  0
 16 17  2  0
 17 18  1  0
 18 19  2  0
 19 20  1  0
 15 21  2  0
  2  7  1  0
 11 21  1  0
 16 20  1  0
M  END
