A71EV2A-x0719_A_201_1_A71EV2A-x0528+A+201+1
     RDKit          3D

 13 13  0  0  0  0  0  0  0  0999 V2000
   31.1250   20.7410   18.9550 O   0  0  0  0  0  0  0  0  0  0  0  0
   31.0720   21.8990   19.7930 S   0  0  0  0  0  0  0  0  0  0  0  0
   31.5690   23.1490   19.3150 O   0  0  0  0  0  0  0  0  0  0  0  0
   31.8320   21.5490   21.1650 N   0  0  0  0  0  0  0  0  0  0  0  0
   29.3900   22.1390   20.3480 C   0  0  0  0  0  0  0  0  0  0  0  0
   28.3490   21.0810   19.9390 C   0  0  1  0  0  0  0  0  0  0  0  0
   29.0400   19.7550   19.6880 C   0  0  0  0  0  0  0  0  0  0  0  0
   27.1630   20.9160   20.8860 C   0  0  0  0  0  0  0  0  0  0  0  0
   26.8040   21.9200   21.7720 C   0  0  0  0  0  0  0  0  0  0  0  0
   25.6560   21.8090   22.5430 C   0  0  0  0  0  0  0  0  0  0  0  0
   24.8740   20.6860   22.4660 C   0  0  0  0  0  0  0  0  0  0  0  0
   25.2300   19.6680   21.6160 C   0  0  0  0  0  0  0  0  0  0  0  0
   26.3650   19.7800   20.8310 C   0  0  0  0  0  0  0  0  0  0  0  0
  6  7  1  1
  6  5  1  0
  5  2  1  0
  3  2  2  0
  2  1  2  0
  4  2  1  0
  8  6  1  0
  8 13  2  0
 13 12  1  0
 12 11  2  0
 11 10  1  0
 10  9  2  0
  9  8  1  0
M  END

$$$$
