XX01ZVNS2B-x1342_B_301_XX01ZVNS2B-x1291+B+301+1
     RDKit          3D

 19 21  0  0  0  0  0  0  0  0999 V2000
   -8.3550    5.4710   -8.7400 C   0  0  0  0  0  0  0  0  0  0  0  0
   -8.5470    4.7210   -9.9720 N   0  0  0  0  0  0  0  0  0  0  0  0
   -8.5050    5.1670  -11.2390 C   0  0  0  0  0  0  0  0  0  0  0  0
   -8.7360    4.0700  -12.0540 C   0  0  0  0  0  0  0  0  0  0  0  0
   -8.8060    4.0080  -13.4550 N   0  0  0  0  0  0  0  0  0  0  0  0
   -8.1740    4.8710  -14.3010 C   0  0  0  0  0  0  0  0  0  0  0  0
   -7.5460    5.8430  -13.8910 O   0  0  0  0  0  0  0  0  0  0  0  0
   -8.2900    4.6110  -15.7790 C   0  0  0  0  0  0  0  0  0  0  0  0
   -9.4930    4.1700  -16.2670 C   0  0  0  0  0  0  0  0  0  0  0  0
   -9.6830    3.9110  -17.6360 C   0  0  0  0  0  0  0  0  0  0  0  0
   -8.6660    4.0940  -18.5200 C   0  0  0  0  0  0  0  0  0  0  0  0
   -7.4030    4.5440  -18.0760 C   0  0  0  0  0  0  0  0  0  0  0  0
   -6.4200    4.7080  -19.0200 N   0  0  0  0  0  0  0  0  0  0  0  0
   -5.2430    5.1280  -18.5930 C   0  0  0  0  0  0  0  0  0  0  0  0
   -4.9370    5.4170  -17.2500 C   0  0  0  0  0  0  0  0  0  0  0  0
   -5.9080    5.2560  -16.3020 C   0  0  0  0  0  0  0  0  0  0  0  0
   -7.2000    4.8100  -16.6890 C   0  0  0  0  0  0  0  0  0  0  0  0
   -8.8980    2.9980  -11.1910 C   0  0  0  0  0  0  0  0  0  0  0  0
   -8.7770    3.3910   -9.9320 N   0  0  0  0  0  0  0  0  0  0  0  0
  1  2  1  0
  2  3  1  0
  3  4  2  0
  4  5  1  0
  5  6  1  0
  6  7  2  0
  6  8  1  0
  8  9  2  0
  9 10  1  0
 10 11  2  0
 11 12  1  0
 12 13  2  0
 13 14  1  0
 14 15  2  0
 15 16  1  0
 16 17  2  0
  4 18  1  0
 18 19  2  0
  2 19  1  0
  8 17  1  0
 12 17  1  0
M  END

$$$$
